** Created by: circuit_gen.AN2D1_1
** Cell name: AN2D1_1
** Lib name: sg13g2
.SUBCKT sg13g2_AN2D1_1 a1 a2 vdd vss z
*.PININFO a1:I a2:I z:O vdd:B vss:B 
M_u2_M_u3 net6 a1 x_u2_net6 vss sg13_lv_nmos l=1.300e-07 w=6.350e-07
M_u3_M_u2 z net6 vss vss sg13_lv_nmos l=1.300e-07 w=7.000e-07
M_u2_M_u4 x_u2_net6 a2 vss vss sg13_lv_nmos l=1.300e-07 w=6.350e-07
M_u3_M_u3 z net6 vdd vdd sg13_lv_pmos l=1.300e-07 w=1.100e-06
M_u2_M_u2 net6 a2 vdd vdd sg13_lv_pmos l=1.300e-07 w=1.100e-06
M_u2_M_u1 net6 a1 vdd vdd sg13_lv_pmos l=1.300e-07 w=1.100e-06
.ENDS


******* EOF

** Created by: circuit_gen.AN2D1_2
** Cell name: AN2D1_2
** Lib name: sg13g2
.SUBCKT sg13g2_AN2D1_2 a1 a2 vdd vss z
*.PININFO a1:I a2:I z:O vdd:B vss:B 
M_u2_M_u3 net6 a1 x_u2_net6 vss sg13_lv_nmos l=1.300e-07 w=6.350e-07
M_u3_M_u2 z net6 vss vss sg13_lv_nmos l=1.300e-07 w=7.000e-07
M_u2_M_u4 x_u2_net6 a2 vss vss sg13_lv_nmos l=1.300e-07 w=6.350e-07
M_u3_M_u3 z net6 vdd vdd sg13_lv_pmos l=1.300e-07 w=1.100e-06
M_u2_M_u2 net6 a2 vdd vdd sg13_lv_pmos l=1.300e-07 w=1.100e-06
M_u2_M_u1 net6 a1 vdd vdd sg13_lv_pmos l=1.300e-07 w=1.100e-06
.ENDS


******* EOF

** Created by: circuit_gen.AN2D1_3
** Cell name: AN2D1_3
** Lib name: sg13g2
.SUBCKT sg13g2_AN2D1_3 a1 a2 vdd vss z
*.PININFO a1:I a2:I z:O vdd:B vss:B 
M_u2_M_u3 net6 a1 x_u2_net6 vss sg13_lv_nmos l=1.300e-07 w=6.350e-07
M_u3_M_u2 z net6 vss vss sg13_lv_nmos l=1.300e-07 w=7.000e-07
M_u2_M_u4 x_u2_net6 a2 vss vss sg13_lv_nmos l=1.300e-07 w=6.350e-07
M_u3_M_u3 z net6 vdd vdd sg13_lv_pmos l=1.300e-07 w=1.100e-06
M_u2_M_u2 net6 a2 vdd vdd sg13_lv_pmos l=1.300e-07 w=1.100e-06
M_u2_M_u1 net6 a1 vdd vdd sg13_lv_pmos l=1.300e-07 w=1.100e-06
.ENDS


******* EOF

** Created by: circuit_gen.AN2D1
** Cell name: AN2D1
** Lib name: sg13g2
.SUBCKT sg13g2_AN2D1 a1 a2 vdd vss z
*.PININFO a1:I a2:I z:O vdd:B vss:B 
M_u2_M_u3 net6 a1 x_u2_net6 vss sg13_lv_nmos l=1.300e-07 w=6.350e-07
M_u3_M_u2 z net6 vss vss sg13_lv_nmos l=1.300e-07 w=7.000e-07
M_u2_M_u4 x_u2_net6 a2 vss vss sg13_lv_nmos l=1.300e-07 w=6.350e-07
M_u3_M_u3 z net6 vdd vdd sg13_lv_pmos l=1.300e-07 w=1.100e-06
M_u2_M_u2 net6 a2 vdd vdd sg13_lv_pmos l=1.300e-07 w=1.100e-06
M_u2_M_u1 net6 a1 vdd vdd sg13_lv_pmos l=1.300e-07 w=1.100e-06
.ENDS


******* EOF

** Created by: circuit_gen.AO21D1_1
** Cell name: AO21D1_1
** Lib name: sg13g2
.SUBCKT sg13g2_AO21D1_1 a1 a2 b vdd vss z
*.PININFO a1:I a2:I b:I z:O vdd:B vss:B 
MI7 net32 a2 vss vss sg13_lv_nmos l=1.300e-07 w=7.000e-07
M_u7 net59 a1 net32 vss sg13_lv_nmos l=1.300e-07 w=7.000e-07
MI6 net59 b vss vss sg13_lv_nmos l=1.300e-07 w=7.000e-07
MI8_M_u2 z net59 vss vss sg13_lv_nmos l=1.300e-07 w=7.000e-07
M_u3 net22 a1 net59 vdd sg13_lv_pmos l=1.300e-07 w=1.100e-06
MI8_M_u3 z net59 vdd vdd sg13_lv_pmos l=1.300e-07 w=1.100e-06
M_u4 net22 a2 net59 vdd sg13_lv_pmos l=1.300e-07 w=1.100e-06
M_u2 net22 b vdd vdd sg13_lv_pmos l=1.300e-07 w=1.100e-06
.ENDS


******* EOF

** Created by: circuit_gen.AO21D1_2
** Cell name: AO21D1_2
** Lib name: sg13g2
.SUBCKT sg13g2_AO21D1_2 a1 a2 b vdd vss z
*.PININFO a1:I a2:I b:I z:O vdd:B vss:B 
MI7 net32 a2 vss vss sg13_lv_nmos l=1.300e-07 w=7.000e-07
M_u7 net59 a1 net32 vss sg13_lv_nmos l=1.300e-07 w=7.000e-07
MI6 net59 b vss vss sg13_lv_nmos l=1.300e-07 w=7.000e-07
MI8_M_u2 z net59 vss vss sg13_lv_nmos l=1.300e-07 w=7.000e-07
M_u3 net22 a1 net59 vdd sg13_lv_pmos l=1.300e-07 w=1.100e-06
MI8_M_u3 z net59 vdd vdd sg13_lv_pmos l=1.300e-07 w=1.100e-06
M_u4 net22 a2 net59 vdd sg13_lv_pmos l=1.300e-07 w=1.100e-06
M_u2 net22 b vdd vdd sg13_lv_pmos l=1.300e-07 w=1.100e-06
.ENDS


******* EOF

** Created by: circuit_gen.AO21D1_3
** Cell name: AO21D1_3
** Lib name: sg13g2
.SUBCKT sg13g2_AO21D1_3 a1 a2 b vdd vss z
*.PININFO a1:I a2:I b:I z:O vdd:B vss:B 
MI7 net32 a2 vss vss sg13_lv_nmos l=1.300e-07 w=7.000e-07
M_u7 net59 a1 net32 vss sg13_lv_nmos l=1.300e-07 w=7.000e-07
MI6 net59 b vss vss sg13_lv_nmos l=1.300e-07 w=7.000e-07
MI8_M_u2 z net59 vss vss sg13_lv_nmos l=1.300e-07 w=7.000e-07
M_u3 net22 a1 net59 vdd sg13_lv_pmos l=1.300e-07 w=1.100e-06
MI8_M_u3 z net59 vdd vdd sg13_lv_pmos l=1.300e-07 w=1.100e-06
M_u4 net22 a2 net59 vdd sg13_lv_pmos l=1.300e-07 w=1.100e-06
M_u2 net22 b vdd vdd sg13_lv_pmos l=1.300e-07 w=1.100e-06
.ENDS


******* EOF

** Created by: circuit_gen.AO21D1
** Cell name: AO21D1
** Lib name: sg13g2
.SUBCKT sg13g2_AO21D1 a1 a2 b vdd vss z
*.PININFO a1:I a2:I b:I z:O vdd:B vss:B 
MI7 net32 a2 vss vss sg13_lv_nmos l=1.300e-07 w=7.000e-07
M_u7 net59 a1 net32 vss sg13_lv_nmos l=1.300e-07 w=7.000e-07
MI6 net59 b vss vss sg13_lv_nmos l=1.300e-07 w=7.000e-07
MI8_M_u2 z net59 vss vss sg13_lv_nmos l=1.300e-07 w=7.000e-07
M_u3 net22 a1 net59 vdd sg13_lv_pmos l=1.300e-07 w=1.100e-06
MI8_M_u3 z net59 vdd vdd sg13_lv_pmos l=1.300e-07 w=1.100e-06
M_u4 net22 a2 net59 vdd sg13_lv_pmos l=1.300e-07 w=1.100e-06
M_u2 net22 b vdd vdd sg13_lv_pmos l=1.300e-07 w=1.100e-06
.ENDS


******* EOF

** Created by: circuit_gen.AOI21D1_1
** Cell name: AOI21D1_1
** Lib name: sg13g2
.SUBCKT sg13g2_AOI21D1_1 a1 a2 b vdd vss zn
*.PININFO a1:I a2:I b:I zn:O vdd:B vss:B 
MI2 zn a1 net27 vss sg13_lv_nmos l=1.300e-07 w=7.000e-07
MI3 net27 a2 vss vss sg13_lv_nmos l=1.300e-07 w=7.000e-07
M_u7 zn b vss vss sg13_lv_nmos l=1.300e-07 w=7.000e-07
M_u4 net13 a2 zn vdd sg13_lv_pmos l=1.300e-07 w=1.100e-06
M_u2 net13 b vdd vdd sg13_lv_pmos l=1.300e-07 w=1.100e-06
M_u3 net13 a1 zn vdd sg13_lv_pmos l=1.300e-07 w=1.100e-06
.ENDS


******* EOF

** Created by: circuit_gen.AOI21D1_2
** Cell name: AOI21D1_2
** Lib name: sg13g2
.SUBCKT sg13g2_AOI21D1_2 a1 a2 b vdd vss zn
*.PININFO a1:I a2:I b:I zn:O vdd:B vss:B 
MI2 zn a1 net27 vss sg13_lv_nmos l=1.300e-07 w=7.000e-07
MI3 net27 a2 vss vss sg13_lv_nmos l=1.300e-07 w=7.000e-07
M_u7 zn b vss vss sg13_lv_nmos l=1.300e-07 w=7.000e-07
M_u4 net13 a2 zn vdd sg13_lv_pmos l=1.300e-07 w=1.100e-06
M_u2 net13 b vdd vdd sg13_lv_pmos l=1.300e-07 w=1.100e-06
M_u3 net13 a1 zn vdd sg13_lv_pmos l=1.300e-07 w=1.100e-06
.ENDS


******* EOF

** Created by: circuit_gen.AOI21D1_3
** Cell name: AOI21D1_3
** Lib name: sg13g2
.SUBCKT sg13g2_AOI21D1_3 a1 a2 b vdd vss zn
*.PININFO a1:I a2:I b:I zn:O vdd:B vss:B 
MI2 zn a1 net27 vss sg13_lv_nmos l=1.300e-07 w=7.000e-07
MI3 net27 a2 vss vss sg13_lv_nmos l=1.300e-07 w=7.000e-07
M_u7 zn b vss vss sg13_lv_nmos l=1.300e-07 w=7.000e-07
M_u4 net13 a2 zn vdd sg13_lv_pmos l=1.300e-07 w=1.100e-06
M_u2 net13 b vdd vdd sg13_lv_pmos l=1.300e-07 w=1.100e-06
M_u3 net13 a1 zn vdd sg13_lv_pmos l=1.300e-07 w=1.100e-06
.ENDS


******* EOF

** Created by: circuit_gen.AOI21D1
** Cell name: AOI21D1
** Lib name: sg13g2
.SUBCKT sg13g2_AOI21D1 a1 a2 b vdd vss zn
*.PININFO a1:I a2:I b:I zn:O vdd:B vss:B 
MI2 zn a1 net27 vss sg13_lv_nmos l=1.300e-07 w=7.000e-07
MI3 net27 a2 vss vss sg13_lv_nmos l=1.300e-07 w=7.000e-07
M_u7 zn b vss vss sg13_lv_nmos l=1.300e-07 w=7.000e-07
M_u4 net13 a2 zn vdd sg13_lv_pmos l=1.300e-07 w=1.100e-06
M_u2 net13 b vdd vdd sg13_lv_pmos l=1.300e-07 w=1.100e-06
M_u3 net13 a1 zn vdd sg13_lv_pmos l=1.300e-07 w=1.100e-06
.ENDS


******* EOF

** Created by: circuit_gen.ANTENNA
** Cell name: ANTENNA
** Lib name: sg13g2f
.SUBCKT sg13g2_ANTENNA i vdd vss
*.PININFO i:I vdd:B vss:B
Ddn_1 vss i dantenna m=1 w=1.485u l=970n a=1440.45f
DD0 i vdd dpantenna m=1 w=1.485u l=970n a=1440.45f
.ENDS


******* EOF

** Created by: circuit_gen.BUFFD1_1
** Cell name: BUFFD1_1
** Lib name: sg13g2
.SUBCKT sg13g2_BUFFD1_1 i vdd vss z
*.PININFO i:I z:O vdd:B vss:B 
M_u3_M_u2 z net8 vss vss sg13_lv_nmos l=1.300e-07 w=7.000e-07
M_u2_M_u2 net8 i vss vss sg13_lv_nmos l=1.300e-07 w=3.500e-07
M_u3_M_u3 z net8 vdd vdd sg13_lv_pmos l=1.300e-07 w=1.100e-06
M_u2_M_u3 net8 i vdd vdd sg13_lv_pmos l=1.300e-07 w=5.500e-07
.ENDS


******* EOF

** Created by: circuit_gen.BUFFD1_2
** Cell name: BUFFD1_2
** Lib name: sg13g2
.SUBCKT sg13g2_BUFFD1_2 i vdd vss z
*.PININFO i:I z:O vdd:B vss:B 
M_u3_M_u2 z net8 vss vss sg13_lv_nmos l=1.300e-07 w=7.000e-07
M_u2_M_u2 net8 i vss vss sg13_lv_nmos l=1.300e-07 w=3.500e-07
M_u3_M_u3 z net8 vdd vdd sg13_lv_pmos l=1.300e-07 w=1.100e-06
M_u2_M_u3 net8 i vdd vdd sg13_lv_pmos l=1.300e-07 w=5.500e-07
.ENDS


******* EOF

** Created by: circuit_gen.BUFFD1_3
** Cell name: BUFFD1_3
** Lib name: sg13g2
.SUBCKT sg13g2_BUFFD1_3 i vdd vss z
*.PININFO i:I z:O vdd:B vss:B 
M_u3_M_u2 z net8 vss vss sg13_lv_nmos l=1.300e-07 w=7.000e-07
M_u2_M_u2 net8 i vss vss sg13_lv_nmos l=1.300e-07 w=3.500e-07
M_u3_M_u3 z net8 vdd vdd sg13_lv_pmos l=1.300e-07 w=1.100e-06
M_u2_M_u3 net8 i vdd vdd sg13_lv_pmos l=1.300e-07 w=5.500e-07
.ENDS


******* EOF

** Created by: circuit_gen.BUFFD1
** Cell name: BUFFD1
** Lib name: sg13g2
.SUBCKT sg13g2_BUFFD1 i vdd vss z
*.PININFO i:I z:O vdd:B vss:B 
M_u3_M_u2 z net8 vss vss sg13_lv_nmos l=1.300e-07 w=7.000e-07
M_u2_M_u2 net8 i vss vss sg13_lv_nmos l=1.300e-07 w=3.500e-07
M_u3_M_u3 z net8 vdd vdd sg13_lv_pmos l=1.300e-07 w=1.100e-06
M_u2_M_u3 net8 i vdd vdd sg13_lv_pmos l=1.300e-07 w=5.500e-07
.ENDS


******* EOF

** Created by: circuit_gen.DFCNQD1
** Cell name: DFCNQD1
** Lib name: sg13g2
.SUBCKT sg13g2_DFCNQD1 cdn cp d q vdd vss
*.PININFO cdn:I cp:I d:I q:O vdd:B vss:B 
Mcpbn incpb cp vss vss sg13_lv_nmos l=1.300e-07 w=3.500e-07 $pos=0 $flip=0
Mcpbp incpb cp vdd vdd sg13_lv_pmos l=1.300e-07 w=5.500e-07 $pos=0 $flip=0
Mcpn incp incpb vss vss sg13_lv_nmos l=1.300e-07 w=3.500e-07 $pos=1 $flip=1
Mcpp incp incpb vdd vdd sg13_lv_pmos l=1.300e-07 w=5.500e-07 $pos=1 $flip=1
MI4 net52 incpb vss vss sg13_lv_nmos l=1.300e-07 w=3.500e-07 $pos=3 $flip=1
MI7 net85 incp vdd vdd sg13_lv_pmos l=1.300e-07 w=8.100e-07 $pos=3 $flip=1
Mdd0n d0 d net52 vss sg13_lv_nmos l=1.300e-07 w=3.500e-07 $pos=4 $flip=1
Mdd0p d0 d net85 vdd sg13_lv_pmos l=1.300e-07 w=8.100e-07 $pos=4 $flip=1
MI47 d0 incp net59 vss sg13_lv_nmos l=1.300e-07 w=2.450e-07 $pos=5 $flip=0
MI45 d0 incpb net98 vdd sg13_lv_pmos l=1.300e-07 w=3.300e-07 $pos=5 $flip=0
MI48 net59 d1 net62 vss sg13_lv_nmos l=1.300e-07 w=2.450e-07 $pos=6 $flip=0
MI43 net98 d1 vdd vdd sg13_lv_pmos l=1.300e-07 w=3.050e-07 $pos=6 $flip=0
Mcdn0n net62 cdn vss vss sg13_lv_nmos l=1.300e-07 w=2.450e-07 $pos=7 $flip=0
Md0d1n d1 d0 vss vss sg13_lv_nmos l=1.300e-07 w=4.300e-07 $pos=8 $flip=1
Mcdn0p net98 cdn vdd vdd sg13_lv_pmos l=1.300e-07 w=2.750e-07 $pos=8 $flip=0
Mswd1d2n d1 incp d2 vss sg13_lv_nmos l=1.300e-07 w=4.900e-07 $pos=9 $flip=0
Mdod1p d1 d0 vdd vdd sg13_lv_pmos l=1.300e-07 w=7.150e-07 $pos=9 $flip=1
MI23 d2 incpb net57 vss sg13_lv_nmos l=1.300e-07 w=2.450e-07 $pos=10 $flip=0
Mswd1d2p d1 incpb d2 vdd sg13_lv_pmos l=1.300e-07 w=1.030e-06 $pos=10 $flip=0
MI26 d2 incp net88 vdd sg13_lv_pmos l=1.300e-07 w=2.750e-07 $pos=11 $flip=0
MI24 net57 d3 vss vss sg13_lv_nmos l=1.300e-07 w=2.450e-07 $pos=12 $flip=0
MI28 net88 d3 vdd vdd sg13_lv_pmos l=1.300e-07 w=2.750e-07 $pos=12 $flip=0
Mcdn1n net37 cdn vss vss sg13_lv_nmos l=1.300e-07 w=7.000e-07 $pos=13 $flip=1
Mcdn1p d3 cdn vdd vdd sg13_lv_pmos l=1.300e-07 w=9.900e-07 $pos=13 $flip=1
Md2d3n d3 d2 net37 vss sg13_lv_nmos l=1.300e-07 w=7.000e-07 $pos=14 $flip=1
Md2d3p d3 d2 vdd vdd sg13_lv_pmos l=1.300e-07 w=9.900e-07 $pos=14 $flip=0
Mobp q d3 vdd vdd sg13_lv_pmos l=1.300e-07 w=1.100e-06 $pos=15 $flip=1
Mobn q d3 vss vss sg13_lv_nmos l=1.300e-07 w=7.000e-07 $pos=16 $flip=1
.ENDS


******* EOF

** Created by: circuit_gen.DFQD1_1
** Cell name: DFQD1_1
** Lib name: sg13g2
.SUBCKT sg13g2_DFQD1_1 cp d q vdd vss
*.PININFO cp:I d:I q:O vdd:B vss:B 
MI4 net43 incpb vss vss sg13_lv_nmos l=1.300e-07 w=4.050e-07
MI23 d2 incpb net42 vss sg13_lv_nmos l=1.300e-07 w=2.450e-07
MI5 d0 d net43 vss sg13_lv_nmos l=1.300e-07 w=4.050e-07
MI47 d0 incp net50 vss sg13_lv_nmos l=1.300e-07 w=2.450e-07
MI48 net50 d1 vss vss sg13_lv_nmos l=1.300e-07 w=2.450e-07
MI24 net42 d3 vss vss sg13_lv_nmos l=1.300e-07 w=2.450e-07
MI50 d1 incp d2 vss sg13_lv_nmos l=1.300e-07 w=3.750e-07
MI32_M_u2 incp incpb vss vss sg13_lv_nmos l=1.300e-07 w=7.000e-07
MI31_M_u2 incpb cp vss vss sg13_lv_nmos l=1.300e-07 w=7.000e-07
MI27_M_u2 q d3 vss vss sg13_lv_nmos l=1.300e-07 w=7.000e-07
MI53_M_u2 d3 d2 vss vss sg13_lv_nmos l=1.300e-07 w=7.000e-07
MI13_M_u2 d1 d0 vss vss sg13_lv_nmos l=1.300e-07 w=4.550e-07
MI6 d0 d net66 vdd sg13_lv_pmos l=1.300e-07 w=6.900e-07
MI32_M_u3 incp incpb vdd vdd sg13_lv_pmos l=1.300e-07 w=1.100e-06
MI31_M_u3 incpb cp vdd vdd sg13_lv_pmos l=1.300e-07 w=1.100e-06
MI27_M_u3 q d3 vdd vdd sg13_lv_pmos l=1.300e-07 w=1.100e-06
MI53_M_u3 d3 d2 vdd vdd sg13_lv_pmos l=1.300e-07 w=1.100e-06
MI13_M_u3 d1 d0 vdd vdd sg13_lv_pmos l=1.300e-07 w=6.900e-07
MI7 net66 incp vdd vdd sg13_lv_pmos l=1.300e-07 w=8.100e-07
MI52 d1 incpb d2 vdd sg13_lv_pmos l=1.300e-07 w=9.750e-07
MI28 net74 d3 vdd vdd sg13_lv_pmos l=1.300e-07 w=2.750e-07
MI26 d2 incp net74 vdd sg13_lv_pmos l=1.300e-07 w=2.750e-07
MI45 d0 incpb net84 vdd sg13_lv_pmos l=1.300e-07 w=2.750e-07
MI43 net84 d1 vdd vdd sg13_lv_pmos l=1.300e-07 w=2.750e-07
.ENDS


******* EOF

** Created by: circuit_gen.DFQD1_2
** Cell name: DFQD1_2
** Lib name: sg13g2
.SUBCKT sg13g2_DFQD1_2 cp d q vdd vss
*.PININFO cp:I d:I q:O vdd:B vss:B 
MI4 net43 incpb vss vss sg13_lv_nmos l=1.300e-07 w=4.050e-07
MI23 d2 incpb net42 vss sg13_lv_nmos l=1.300e-07 w=2.450e-07
MI5 d0 d net43 vss sg13_lv_nmos l=1.300e-07 w=4.050e-07
MI47 d0 incp net50 vss sg13_lv_nmos l=1.300e-07 w=2.450e-07
MI48 net50 d1 vss vss sg13_lv_nmos l=1.300e-07 w=2.450e-07
MI24 net42 d3 vss vss sg13_lv_nmos l=1.300e-07 w=2.450e-07
MI50 d1 incp d2 vss sg13_lv_nmos l=1.300e-07 w=3.750e-07
MI32_M_u2 incp incpb vss vss sg13_lv_nmos l=1.300e-07 w=7.000e-07
MI31_M_u2 incpb cp vss vss sg13_lv_nmos l=1.300e-07 w=7.000e-07
MI27_M_u2 q d3 vss vss sg13_lv_nmos l=1.300e-07 w=7.000e-07
MI53_M_u2 d3 d2 vss vss sg13_lv_nmos l=1.300e-07 w=7.000e-07
MI13_M_u2 d1 d0 vss vss sg13_lv_nmos l=1.300e-07 w=4.550e-07
MI6 d0 d net66 vdd sg13_lv_pmos l=1.300e-07 w=6.900e-07
MI32_M_u3 incp incpb vdd vdd sg13_lv_pmos l=1.300e-07 w=1.100e-06
MI31_M_u3 incpb cp vdd vdd sg13_lv_pmos l=1.300e-07 w=1.100e-06
MI27_M_u3 q d3 vdd vdd sg13_lv_pmos l=1.300e-07 w=1.100e-06
MI53_M_u3 d3 d2 vdd vdd sg13_lv_pmos l=1.300e-07 w=1.100e-06
MI13_M_u3 d1 d0 vdd vdd sg13_lv_pmos l=1.300e-07 w=6.900e-07
MI7 net66 incp vdd vdd sg13_lv_pmos l=1.300e-07 w=8.100e-07
MI52 d1 incpb d2 vdd sg13_lv_pmos l=1.300e-07 w=9.750e-07
MI28 net74 d3 vdd vdd sg13_lv_pmos l=1.300e-07 w=2.750e-07
MI26 d2 incp net74 vdd sg13_lv_pmos l=1.300e-07 w=2.750e-07
MI45 d0 incpb net84 vdd sg13_lv_pmos l=1.300e-07 w=2.750e-07
MI43 net84 d1 vdd vdd sg13_lv_pmos l=1.300e-07 w=2.750e-07
.ENDS


******* EOF

** Created by: circuit_gen.DFQD1_3
** Cell name: DFQD1_3
** Lib name: sg13g2
.SUBCKT sg13g2_DFQD1_3 cp d q vdd vss
*.PININFO cp:I d:I q:O vdd:B vss:B 
MI4 net43 incpb vss vss sg13_lv_nmos l=1.300e-07 w=4.050e-07
MI23 d2 incpb net42 vss sg13_lv_nmos l=1.300e-07 w=2.450e-07
MI5 d0 d net43 vss sg13_lv_nmos l=1.300e-07 w=4.050e-07
MI47 d0 incp net50 vss sg13_lv_nmos l=1.300e-07 w=2.450e-07
MI48 net50 d1 vss vss sg13_lv_nmos l=1.300e-07 w=2.450e-07
MI24 net42 d3 vss vss sg13_lv_nmos l=1.300e-07 w=2.450e-07
MI50 d1 incp d2 vss sg13_lv_nmos l=1.300e-07 w=3.750e-07
MI32_M_u2 incp incpb vss vss sg13_lv_nmos l=1.300e-07 w=7.000e-07
MI31_M_u2 incpb cp vss vss sg13_lv_nmos l=1.300e-07 w=7.000e-07
MI27_M_u2 q d3 vss vss sg13_lv_nmos l=1.300e-07 w=7.000e-07
MI53_M_u2 d3 d2 vss vss sg13_lv_nmos l=1.300e-07 w=7.000e-07
MI13_M_u2 d1 d0 vss vss sg13_lv_nmos l=1.300e-07 w=4.550e-07
MI6 d0 d net66 vdd sg13_lv_pmos l=1.300e-07 w=6.900e-07
MI32_M_u3 incp incpb vdd vdd sg13_lv_pmos l=1.300e-07 w=1.100e-06
MI31_M_u3 incpb cp vdd vdd sg13_lv_pmos l=1.300e-07 w=1.100e-06
MI27_M_u3 q d3 vdd vdd sg13_lv_pmos l=1.300e-07 w=1.100e-06
MI53_M_u3 d3 d2 vdd vdd sg13_lv_pmos l=1.300e-07 w=1.100e-06
MI13_M_u3 d1 d0 vdd vdd sg13_lv_pmos l=1.300e-07 w=6.900e-07
MI7 net66 incp vdd vdd sg13_lv_pmos l=1.300e-07 w=8.100e-07
MI52 d1 incpb d2 vdd sg13_lv_pmos l=1.300e-07 w=9.750e-07
MI28 net74 d3 vdd vdd sg13_lv_pmos l=1.300e-07 w=2.750e-07
MI26 d2 incp net74 vdd sg13_lv_pmos l=1.300e-07 w=2.750e-07
MI45 d0 incpb net84 vdd sg13_lv_pmos l=1.300e-07 w=2.750e-07
MI43 net84 d1 vdd vdd sg13_lv_pmos l=1.300e-07 w=2.750e-07
.ENDS


******* EOF

** Created by: circuit_gen.DFQD1
** Cell name: DFQD1
** Lib name: sg13g2
.SUBCKT sg13g2_DFQD1 cp d q vdd vss
*.PININFO cp:I d:I q:O vdd:B vss:B 
MI4 net43 incpb vss vss sg13_lv_nmos l=1.300e-07 w=4.050e-07
MI23 d2 incpb net42 vss sg13_lv_nmos l=1.300e-07 w=2.450e-07
MI5 d0 d net43 vss sg13_lv_nmos l=1.300e-07 w=4.050e-07
MI47 d0 incp net50 vss sg13_lv_nmos l=1.300e-07 w=2.450e-07
MI48 net50 d1 vss vss sg13_lv_nmos l=1.300e-07 w=2.450e-07
MI24 net42 d3 vss vss sg13_lv_nmos l=1.300e-07 w=2.450e-07
MI50 d1 incp d2 vss sg13_lv_nmos l=1.300e-07 w=3.750e-07
MI32_M_u2 incp incpb vss vss sg13_lv_nmos l=1.300e-07 w=7.000e-07
MI31_M_u2 incpb cp vss vss sg13_lv_nmos l=1.300e-07 w=7.000e-07
MI27_M_u2 q d3 vss vss sg13_lv_nmos l=1.300e-07 w=7.000e-07
MI53_M_u2 d3 d2 vss vss sg13_lv_nmos l=1.300e-07 w=7.000e-07
MI13_M_u2 d1 d0 vss vss sg13_lv_nmos l=1.300e-07 w=4.550e-07
MI6 d0 d net66 vdd sg13_lv_pmos l=1.300e-07 w=6.900e-07
MI32_M_u3 incp incpb vdd vdd sg13_lv_pmos l=1.300e-07 w=1.100e-06
MI31_M_u3 incpb cp vdd vdd sg13_lv_pmos l=1.300e-07 w=1.100e-06
MI27_M_u3 q d3 vdd vdd sg13_lv_pmos l=1.300e-07 w=1.100e-06
MI53_M_u3 d3 d2 vdd vdd sg13_lv_pmos l=1.300e-07 w=1.100e-06
MI13_M_u3 d1 d0 vdd vdd sg13_lv_pmos l=1.300e-07 w=6.900e-07
MI7 net66 incp vdd vdd sg13_lv_pmos l=1.300e-07 w=8.100e-07
MI52 d1 incpb d2 vdd sg13_lv_pmos l=1.300e-07 w=9.750e-07
MI28 net74 d3 vdd vdd sg13_lv_pmos l=1.300e-07 w=2.750e-07
MI26 d2 incp net74 vdd sg13_lv_pmos l=1.300e-07 w=2.750e-07
MI45 d0 incpb net84 vdd sg13_lv_pmos l=1.300e-07 w=2.750e-07
MI43 net84 d1 vdd vdd sg13_lv_pmos l=1.300e-07 w=2.750e-07
.ENDS


******* EOF

** Created by: circuit_gen.FILL1
** Cell name: FILL1
** Lib name: sg13g2
.SUBCKT sg13g2_FILL1 vdd vss
*.PININFO vdd:B vss:B 
.ENDS


******* EOF

** Created by: circuit_gen.FILL2
** Cell name: FILL2
** Lib name: sg13g2
.SUBCKT sg13g2_FILL2 vdd vss
*.PININFO vdd:B vss:B 
.ENDS


******* EOF

** Created by: circuit_gen.FILL4
** Cell name: FILL4
** Lib name: sg13g2
.SUBCKT sg13g2_FILL4 vdd vss
*.PININFO vdd:B vss:B 
.ENDS


******* EOF

** Created by: circuit_gen.FILL8
** Cell name: FILL8
** Lib name: sg13g2
.SUBCKT sg13g2_FILL8 vdd vss
*.PININFO vdd:B vss:B 
.ENDS


******* EOF

** Created by: circuit_gen.INVD1_1
** Cell name: INVD1_1
** Lib name: sg13g2
.SUBCKT sg13g2_INVD1_1 i z vss vdd
*.PININFO i:I z:O vss:B vdd:B
M0 z i vss vss sg13_lv_nmos l=1.300e-07 w=7.000e-07
M1 z i vdd vdd sg13_lv_pmos l=1.300e-07 w=1.100e-06
.ENDS


******* EOF

** Created by: circuit_gen.INVD1_2
** Cell name: INVD1_2
** Lib name: sg13g2
.SUBCKT sg13g2_INVD1_2 i z vss vdd
*.PININFO i:I z:O vss:B vdd:B
M0 z i vss vss sg13_lv_nmos l=1.300e-07 w=7.000e-07
M1 z i vdd vdd sg13_lv_pmos l=1.300e-07 w=1.100e-06
.ENDS


******* EOF

** Created by: circuit_gen.INVD1_3
** Cell name: INVD1_3
** Lib name: sg13g2
.SUBCKT sg13g2_INVD1_3 i z vss vdd
*.PININFO i:I z:O vss:B vdd:B
M0 z i vss vss sg13_lv_nmos l=1.300e-07 w=7.000e-07
M1 z i vdd vdd sg13_lv_pmos l=1.300e-07 w=1.100e-06
.ENDS


******* EOF

** Created by: circuit_gen.INVD1
** Cell name: INVD1
** Lib name: sg13g2
.SUBCKT sg13g2_INVD1 i z vss vdd
*.PININFO i:I z:O vss:B vdd:B
M0 z i vss vss sg13_lv_nmos l=1.300e-07 w=7.000e-07
M1 z i vdd vdd sg13_lv_pmos l=1.300e-07 w=1.100e-06
.ENDS


******* EOF

** Created by: circuit_gen.MUX2D1_1
** Cell name: MUX2D1_1
** Lib name: sg13g2
.SUBCKT sg13g2_MUX2D1_1 i0 i1 s vdd vss z
*.PININFO i0:I i1:I s:I z:O vdd:B vss:B 
MI15_M_u3 net46 s net28 vss sg13_lv_nmos l=1.300e-07 w=3.500e-07
MU7_M_u3 net48 net42 net28 vss sg13_lv_nmos l=1.300e-07 w=3.500e-07
MI20_M_u2 net46 i1 vss vss sg13_lv_nmos l=1.300e-07 w=7.000e-07
MI19_M_u2 net48 i0 vss vss sg13_lv_nmos l=1.300e-07 w=5.050e-07
MI18_M_u2 net42 s vss vss sg13_lv_nmos l=1.300e-07 w=3.500e-07
MU29_M_u2 z net28 vss vss sg13_lv_nmos l=1.300e-07 w=7.000e-07
MI15_M_u2 net46 net42 net28 vdd sg13_lv_pmos l=1.300e-07 w=5.500e-07
MU7_M_u2 net48 s net28 vdd sg13_lv_pmos l=1.300e-07 w=5.500e-07
MI20_M_u3 net46 i1 vdd vdd sg13_lv_pmos l=1.300e-07 w=1.100e-06
MI19_M_u3 net48 i0 vdd vdd sg13_lv_pmos l=1.300e-07 w=9.100e-07
MI18_M_u3 net42 s vdd vdd sg13_lv_pmos l=1.300e-07 w=5.500e-07
MU29_M_u3 z net28 vdd vdd sg13_lv_pmos l=1.300e-07 w=7.700e-07
.ENDS


******* EOF

** Created by: circuit_gen.MUX2D1_2
** Cell name: MUX2D1_2
** Lib name: sg13g2
.SUBCKT sg13g2_MUX2D1_2 i0 i1 s vdd vss z
*.PININFO i0:I i1:I s:I z:O vdd:B vss:B 
MI15_M_u3 net46 s net28 vss sg13_lv_nmos l=1.300e-07 w=3.500e-07
MU7_M_u3 net48 net42 net28 vss sg13_lv_nmos l=1.300e-07 w=3.500e-07
MI20_M_u2 net46 i1 vss vss sg13_lv_nmos l=1.300e-07 w=7.000e-07
MI19_M_u2 net48 i0 vss vss sg13_lv_nmos l=1.300e-07 w=5.050e-07
MI18_M_u2 net42 s vss vss sg13_lv_nmos l=1.300e-07 w=3.500e-07
MU29_M_u2 z net28 vss vss sg13_lv_nmos l=1.300e-07 w=7.000e-07
MI15_M_u2 net46 net42 net28 vdd sg13_lv_pmos l=1.300e-07 w=5.500e-07
MU7_M_u2 net48 s net28 vdd sg13_lv_pmos l=1.300e-07 w=5.500e-07
MI20_M_u3 net46 i1 vdd vdd sg13_lv_pmos l=1.300e-07 w=1.100e-06
MI19_M_u3 net48 i0 vdd vdd sg13_lv_pmos l=1.300e-07 w=9.100e-07
MI18_M_u3 net42 s vdd vdd sg13_lv_pmos l=1.300e-07 w=5.500e-07
MU29_M_u3 z net28 vdd vdd sg13_lv_pmos l=1.300e-07 w=7.700e-07
.ENDS


******* EOF

** Created by: circuit_gen.MUX2D1_3
** Cell name: MUX2D1_3
** Lib name: sg13g2
.SUBCKT sg13g2_MUX2D1_3 i0 i1 s vdd vss z
*.PININFO i0:I i1:I s:I z:O vdd:B vss:B 
MI15_M_u3 net46 s net28 vss sg13_lv_nmos l=1.300e-07 w=3.500e-07
MU7_M_u3 net48 net42 net28 vss sg13_lv_nmos l=1.300e-07 w=3.500e-07
MI20_M_u2 net46 i1 vss vss sg13_lv_nmos l=1.300e-07 w=7.000e-07
MI19_M_u2 net48 i0 vss vss sg13_lv_nmos l=1.300e-07 w=5.050e-07
MI18_M_u2 net42 s vss vss sg13_lv_nmos l=1.300e-07 w=3.500e-07
MU29_M_u2 z net28 vss vss sg13_lv_nmos l=1.300e-07 w=7.000e-07
MI15_M_u2 net46 net42 net28 vdd sg13_lv_pmos l=1.300e-07 w=5.500e-07
MU7_M_u2 net48 s net28 vdd sg13_lv_pmos l=1.300e-07 w=5.500e-07
MI20_M_u3 net46 i1 vdd vdd sg13_lv_pmos l=1.300e-07 w=1.100e-06
MI19_M_u3 net48 i0 vdd vdd sg13_lv_pmos l=1.300e-07 w=9.100e-07
MI18_M_u3 net42 s vdd vdd sg13_lv_pmos l=1.300e-07 w=5.500e-07
MU29_M_u3 z net28 vdd vdd sg13_lv_pmos l=1.300e-07 w=7.700e-07
.ENDS


******* EOF

** Created by: circuit_gen.MUX2D1
** Cell name: MUX2D1
** Lib name: sg13g2
.SUBCKT sg13g2_MUX2D1 i0 i1 s vdd vss z
*.PININFO i0:I i1:I s:I z:O vdd:B vss:B 
MI15_M_u3 net46 s net28 vss sg13_lv_nmos l=1.300e-07 w=3.500e-07
MU7_M_u3 net48 net42 net28 vss sg13_lv_nmos l=1.300e-07 w=3.500e-07
MI20_M_u2 net46 i1 vss vss sg13_lv_nmos l=1.300e-07 w=7.000e-07
MI19_M_u2 net48 i0 vss vss sg13_lv_nmos l=1.300e-07 w=5.050e-07
MI18_M_u2 net42 s vss vss sg13_lv_nmos l=1.300e-07 w=3.500e-07
MU29_M_u2 z net28 vss vss sg13_lv_nmos l=1.300e-07 w=7.000e-07
MI15_M_u2 net46 net42 net28 vdd sg13_lv_pmos l=1.300e-07 w=5.500e-07
MU7_M_u2 net48 s net28 vdd sg13_lv_pmos l=1.300e-07 w=5.500e-07
MI20_M_u3 net46 i1 vdd vdd sg13_lv_pmos l=1.300e-07 w=1.100e-06
MI19_M_u3 net48 i0 vdd vdd sg13_lv_pmos l=1.300e-07 w=9.100e-07
MI18_M_u3 net42 s vdd vdd sg13_lv_pmos l=1.300e-07 w=5.500e-07
MU29_M_u3 z net28 vdd vdd sg13_lv_pmos l=1.300e-07 w=7.700e-07
.ENDS


******* EOF

** Created by: circuit_gen.ND2D1_1
** Cell name: ND2D1_1
** Lib name: sg13g2
.SUBCKT sg13g2_ND2D1_1 a1 a2 vdd vss zn
*.PININFO a1:I a2:I zn:O vdd:B vss:B 
MI1_M_u3 zn a1 xi1_net6 vss sg13_lv_nmos l=1.300e-07 w=7.000e-07
MI1_M_u4 xi1_net6 a2 vss vss sg13_lv_nmos l=1.300e-07 w=7.000e-07
MI1_M_u2 zn a2 vdd vdd sg13_lv_pmos l=1.300e-07 w=1.100e-06
MI1_M_u1 zn a1 vdd vdd sg13_lv_pmos l=1.300e-07 w=1.100e-06
.ENDS


******* EOF

** Created by: circuit_gen.ND2D1_2
** Cell name: ND2D1_2
** Lib name: sg13g2
.SUBCKT sg13g2_ND2D1_2 a1 a2 vdd vss zn
*.PININFO a1:I a2:I zn:O vdd:B vss:B 
MI1_M_u3 zn a1 xi1_net6 vss sg13_lv_nmos l=1.300e-07 w=7.000e-07
MI1_M_u4 xi1_net6 a2 vss vss sg13_lv_nmos l=1.300e-07 w=7.000e-07
MI1_M_u2 zn a2 vdd vdd sg13_lv_pmos l=1.300e-07 w=1.100e-06
MI1_M_u1 zn a1 vdd vdd sg13_lv_pmos l=1.300e-07 w=1.100e-06
.ENDS


******* EOF

** Created by: circuit_gen.ND2D1_3
** Cell name: ND2D1_3
** Lib name: sg13g2
.SUBCKT sg13g2_ND2D1_3 a1 a2 vdd vss zn
*.PININFO a1:I a2:I zn:O vdd:B vss:B 
MI1_M_u3 zn a1 xi1_net6 vss sg13_lv_nmos l=1.300e-07 w=7.000e-07
MI1_M_u4 xi1_net6 a2 vss vss sg13_lv_nmos l=1.300e-07 w=7.000e-07
MI1_M_u2 zn a2 vdd vdd sg13_lv_pmos l=1.300e-07 w=1.100e-06
MI1_M_u1 zn a1 vdd vdd sg13_lv_pmos l=1.300e-07 w=1.100e-06
.ENDS


******* EOF

** Created by: circuit_gen.ND2D1
** Cell name: ND2D1
** Lib name: sg13g2
.SUBCKT sg13g2_ND2D1 a1 a2 vdd vss zn
*.PININFO a1:I a2:I zn:O vdd:B vss:B 
MI1_M_u3 zn a1 xi1_net6 vss sg13_lv_nmos l=1.300e-07 w=7.000e-07
MI1_M_u4 xi1_net6 a2 vss vss sg13_lv_nmos l=1.300e-07 w=7.000e-07
MI1_M_u2 zn a2 vdd vdd sg13_lv_pmos l=1.300e-07 w=1.100e-06
MI1_M_u1 zn a1 vdd vdd sg13_lv_pmos l=1.300e-07 w=1.100e-06
.ENDS


******* EOF

** Created by: circuit_gen.ND3D1_1
** Cell name: ND3D1_1
** Lib name: sg13g2
.SUBCKT sg13g2_ND3D1_1 a1 a2 a3 vdd vss zn
*.PININFO a1:I a2:I a3:I zn:O vdd:B vss:B 
MI1_M_u4 zn a1 xi1_net10 vss sg13_lv_nmos l=1.300e-07 w=7.000e-07
MI1_M_u5 xi1_net10 a2 xi1_net13 vss sg13_lv_nmos l=1.300e-07 w=7.000e-07
MI1_M_u6 xi1_net13 a3 vss vss sg13_lv_nmos l=1.300e-07 w=7.000e-07
MI1_M_u3 zn a3 vdd vdd sg13_lv_pmos l=1.300e-07 w=1.100e-06
MI1_M_u1 zn a1 vdd vdd sg13_lv_pmos l=1.300e-07 w=1.100e-06
MI1_M_u2 zn a2 vdd vdd sg13_lv_pmos l=1.300e-07 w=1.100e-06
.ENDS


******* EOF

** Created by: circuit_gen.ND3D1_2
** Cell name: ND3D1_2
** Lib name: sg13g2
.SUBCKT sg13g2_ND3D1_2 a1 a2 a3 vdd vss zn
*.PININFO a1:I a2:I a3:I zn:O vdd:B vss:B 
MI1_M_u4 zn a1 xi1_net10 vss sg13_lv_nmos l=1.300e-07 w=7.000e-07
MI1_M_u5 xi1_net10 a2 xi1_net13 vss sg13_lv_nmos l=1.300e-07 w=7.000e-07
MI1_M_u6 xi1_net13 a3 vss vss sg13_lv_nmos l=1.300e-07 w=7.000e-07
MI1_M_u3 zn a3 vdd vdd sg13_lv_pmos l=1.300e-07 w=1.100e-06
MI1_M_u1 zn a1 vdd vdd sg13_lv_pmos l=1.300e-07 w=1.100e-06
MI1_M_u2 zn a2 vdd vdd sg13_lv_pmos l=1.300e-07 w=1.100e-06
.ENDS


******* EOF

** Created by: circuit_gen.ND3D1_3
** Cell name: ND3D1_3
** Lib name: sg13g2
.SUBCKT sg13g2_ND3D1_3 a1 a2 a3 vdd vss zn
*.PININFO a1:I a2:I a3:I zn:O vdd:B vss:B 
MI1_M_u4 zn a1 xi1_net10 vss sg13_lv_nmos l=1.300e-07 w=7.000e-07
MI1_M_u5 xi1_net10 a2 xi1_net13 vss sg13_lv_nmos l=1.300e-07 w=7.000e-07
MI1_M_u6 xi1_net13 a3 vss vss sg13_lv_nmos l=1.300e-07 w=7.000e-07
MI1_M_u3 zn a3 vdd vdd sg13_lv_pmos l=1.300e-07 w=1.100e-06
MI1_M_u1 zn a1 vdd vdd sg13_lv_pmos l=1.300e-07 w=1.100e-06
MI1_M_u2 zn a2 vdd vdd sg13_lv_pmos l=1.300e-07 w=1.100e-06
.ENDS


******* EOF

** Created by: circuit_gen.ND3D1
** Cell name: ND3D1
** Lib name: sg13g2
.SUBCKT sg13g2_ND3D1 a1 a2 a3 vdd vss zn
*.PININFO a1:I a2:I a3:I zn:O vdd:B vss:B 
MI1_M_u4 zn a1 xi1_net10 vss sg13_lv_nmos l=1.300e-07 w=7.000e-07
MI1_M_u5 xi1_net10 a2 xi1_net13 vss sg13_lv_nmos l=1.300e-07 w=7.000e-07
MI1_M_u6 xi1_net13 a3 vss vss sg13_lv_nmos l=1.300e-07 w=7.000e-07
MI1_M_u3 zn a3 vdd vdd sg13_lv_pmos l=1.300e-07 w=1.100e-06
MI1_M_u1 zn a1 vdd vdd sg13_lv_pmos l=1.300e-07 w=1.100e-06
MI1_M_u2 zn a2 vdd vdd sg13_lv_pmos l=1.300e-07 w=1.100e-06
.ENDS


******* EOF

** Created by: circuit_gen.ND4D1_1
** Cell name: ND4D1_1
** Lib name: sg13g2
.SUBCKT sg13g2_ND4D1_1 a1 a2 a3 a4 vdd vss zn
*.PININFO a1:I a2:I a3:I a4:I zn:O vdd:B vss:B 
MI3 p0 a2 p1 vss sg13_lv_nmos l=1.300e-07 w=7.000e-07
MI5 p2 a4 vss vss sg13_lv_nmos l=1.300e-07 w=7.000e-07
MI4 p1 a3 p2 vss sg13_lv_nmos l=1.300e-07 w=7.000e-07
MU53 zn a1 p0 vss sg13_lv_nmos l=1.300e-07 w=7.000e-07
MI7 zn a1 vdd vdd sg13_lv_pmos l=1.300e-07 w=1.100e-06
MI2 zn a4 vdd vdd sg13_lv_pmos l=1.300e-07 w=1.100e-06
MI1 zn a3 vdd vdd sg13_lv_pmos l=1.300e-07 w=1.100e-06
MI0 zn a2 vdd vdd sg13_lv_pmos l=1.300e-07 w=1.100e-06
.ENDS


******* EOF

** Created by: circuit_gen.ND4D1_2
** Cell name: ND4D1_2
** Lib name: sg13g2
.SUBCKT sg13g2_ND4D1_2 a1 a2 a3 a4 vdd vss zn
*.PININFO a1:I a2:I a3:I a4:I zn:O vdd:B vss:B 
MI3 p0 a2 p1 vss sg13_lv_nmos l=1.300e-07 w=7.000e-07
MI5 p2 a4 vss vss sg13_lv_nmos l=1.300e-07 w=7.000e-07
MI4 p1 a3 p2 vss sg13_lv_nmos l=1.300e-07 w=7.000e-07
MU53 zn a1 p0 vss sg13_lv_nmos l=1.300e-07 w=7.000e-07
MI7 zn a1 vdd vdd sg13_lv_pmos l=1.300e-07 w=1.100e-06
MI2 zn a4 vdd vdd sg13_lv_pmos l=1.300e-07 w=1.100e-06
MI1 zn a3 vdd vdd sg13_lv_pmos l=1.300e-07 w=1.100e-06
MI0 zn a2 vdd vdd sg13_lv_pmos l=1.300e-07 w=1.100e-06
.ENDS


******* EOF

** Created by: circuit_gen.ND4D1_3
** Cell name: ND4D1_3
** Lib name: sg13g2
.SUBCKT sg13g2_ND4D1_3 a1 a2 a3 a4 vdd vss zn
*.PININFO a1:I a2:I a3:I a4:I zn:O vdd:B vss:B 
MI3 p0 a2 p1 vss sg13_lv_nmos l=1.300e-07 w=7.000e-07
MI5 p2 a4 vss vss sg13_lv_nmos l=1.300e-07 w=7.000e-07
MI4 p1 a3 p2 vss sg13_lv_nmos l=1.300e-07 w=7.000e-07
MU53 zn a1 p0 vss sg13_lv_nmos l=1.300e-07 w=7.000e-07
MI7 zn a1 vdd vdd sg13_lv_pmos l=1.300e-07 w=1.100e-06
MI2 zn a4 vdd vdd sg13_lv_pmos l=1.300e-07 w=1.100e-06
MI1 zn a3 vdd vdd sg13_lv_pmos l=1.300e-07 w=1.100e-06
MI0 zn a2 vdd vdd sg13_lv_pmos l=1.300e-07 w=1.100e-06
.ENDS


******* EOF

** Created by: circuit_gen.ND4D1
** Cell name: ND4D1
** Lib name: sg13g2
.SUBCKT sg13g2_ND4D1 a1 a2 a3 a4 vdd vss zn
*.PININFO a1:I a2:I a3:I a4:I zn:O vdd:B vss:B 
MI3 p0 a2 p1 vss sg13_lv_nmos l=1.300e-07 w=7.000e-07
MI5 p2 a4 vss vss sg13_lv_nmos l=1.300e-07 w=7.000e-07
MI4 p1 a3 p2 vss sg13_lv_nmos l=1.300e-07 w=7.000e-07
MU53 zn a1 p0 vss sg13_lv_nmos l=1.300e-07 w=7.000e-07
MI7 zn a1 vdd vdd sg13_lv_pmos l=1.300e-07 w=1.100e-06
MI2 zn a4 vdd vdd sg13_lv_pmos l=1.300e-07 w=1.100e-06
MI1 zn a3 vdd vdd sg13_lv_pmos l=1.300e-07 w=1.100e-06
MI0 zn a2 vdd vdd sg13_lv_pmos l=1.300e-07 w=1.100e-06
.ENDS


******* EOF

** Created by: circuit_gen.NR2D1_1
** Cell name: NR2D1_1
** Lib name: sg13g2
.SUBCKT sg13g2_NR2D1_1 a1 a2 vdd vss zn
*.PININFO a1:I a2:I zn:O vdd:B vss:B 
MI1_M_u4 zn a1 vss vss sg13_lv_nmos l=1.300e-07 w=7.000e-07
MI1_M_u3 zn a2 vss vss sg13_lv_nmos l=1.300e-07 w=7.000e-07
MI1_M_u2 zn a1 xi1_net8 vdd sg13_lv_pmos l=1.300e-07 w=1.100e-06