* CDL Netlist generated by OpenROAD

*.BUSDELIMITER [

.SUBCKT SARADC AVDD CLK GO RESULT[0] RESULT[1] RESULT[2] RESULT[3]
+ RESULT[4] RST SAMPLE VALID VDD VIN VIP VREFH VREFL VSS
Xanalog/buflogic.conv.cmpbegin.ccmpbuf1.impl analog/buflogic.conv.cmpbegin.CCMPNR
+ AVDD VSS analog/buflogic.conv.cmpbegin.CCMPNR1 sg13g2f_BUFFD8
Xanalog/buflogic.conv.cmpbegin.ccmpbuf2.impl analog/buflogic.conv.cmpbegin.CCMPNR1
+ AVDD VSS analog/buflogic.CMP sg13g2f_BUFFD16
Xanalog/buflogic.conv.cmpbegin.ccmpnor.impl SAMPLE CLKBUF
+ VALID AVDD VSS analog/buflogic.conv.cmpbegin.CCMPNR sg13g2f_NR3D4
Xanalog/buflogic.conv.re2cr\[1\].ren2crh.ibuf16.impl RESULTN\[1\]
+ AVDD VSS analog/buflogic.conv.re2cr\[1\].ren2crh.ZL sg13g2f_BUFFD16
Xanalog/buflogic.conv.re2cr\[1\].ren2crh.ln1.impl analog/buflogic.conv.re2cr\[1\].ren2crh.ZL
+ AVDD VSS analog/buflogic.conv.re2cr\[1\].ren2crh.ZNL sg13g2f_INVD8
Xanalog/buflogic.conv.re2cr\[1\].ren2crh.ln2.impl analog/buflogic.conv.re2cr\[1\].ren2crh.ZNL
+ AVDD VSS analog/buflogic.conv.re2cr\[1\].ren2crh.ZL sg13g2f_INVD8
Xanalog/buflogic.conv.re2cr\[1\].ren2crh.zbuf.impl analog/buflogic.conv.re2cr\[1\].ren2crh.ZLD3
+ AVDD VSS analog/CRH\[0\] sg13g2f_BUFFD16
Xanalog/buflogic.conv.re2cr\[1\].ren2crh.zdel_1.impl1 analog/buflogic.conv.re2cr\[1\].ren2crh.ZL
+ AVDD VSS analog/buflogic.conv.re2cr\[1\].ren2crh.zdel_1.Z1
+ sg13g2f_DEL4
Xanalog/buflogic.conv.re2cr\[1\].ren2crh.zdel_1.impl2 analog/buflogic.conv.re2cr\[1\].ren2crh.zdel_1.Z1
+ AVDD VSS analog/buflogic.conv.re2cr\[1\].ren2crh.ZLD1 sg13g2f_BUFFD2
Xanalog/buflogic.conv.re2cr\[1\].ren2crh.zdel_2.impl1 analog/buflogic.conv.re2cr\[1\].ren2crh.ZLD1
+ AVDD VSS analog/buflogic.conv.re2cr\[1\].ren2crh.zdel_2.Z1
+ sg13g2f_DEL4
Xanalog/buflogic.conv.re2cr\[1\].ren2crh.zdel_2.impl2 analog/buflogic.conv.re2cr\[1\].ren2crh.zdel_2.Z1
+ AVDD VSS analog/buflogic.conv.re2cr\[1\].ren2crh.ZLD2 sg13g2f_BUFFD2
Xanalog/buflogic.conv.re2cr\[1\].ren2crh.zdel_3.impl1 analog/buflogic.conv.re2cr\[1\].ren2crh.ZLD2
+ AVDD VSS analog/buflogic.conv.re2cr\[1\].ren2crh.zdel_3.Z1
+ sg13g2f_DEL4
Xanalog/buflogic.conv.re2cr\[1\].ren2crh.zdel_3.impl2 analog/buflogic.conv.re2cr\[1\].ren2crh.zdel_3.Z1
+ AVDD VSS analog/buflogic.conv.re2cr\[1\].ren2crh.ZLD3 sg13g2f_BUFFD2
Xanalog/buflogic.conv.re2cr\[1\].ren2crh.znbuf.impl analog/buflogic.conv.re2cr\[1\].ren2crh.ZNLD3
+ AVDD VSS analog/CRHB\[0\] sg13g2f_BUFFD16
Xanalog/buflogic.conv.re2cr\[1\].ren2crh.zndel_1.impl1 analog/buflogic.conv.re2cr\[1\].ren2crh.ZNL
+ AVDD VSS analog/buflogic.conv.re2cr\[1\].ren2crh.zndel_1.Z1
+ sg13g2f_DEL4
Xanalog/buflogic.conv.re2cr\[1\].ren2crh.zndel_1.impl2 analog/buflogic.conv.re2cr\[1\].ren2crh.zndel_1.Z1
+ AVDD VSS analog/buflogic.conv.re2cr\[1\].ren2crh.ZNLD1 sg13g2f_BUFFD2
Xanalog/buflogic.conv.re2cr\[1\].ren2crh.zndel_2.impl1 analog/buflogic.conv.re2cr\[1\].ren2crh.ZNLD1
+ AVDD VSS analog/buflogic.conv.re2cr\[1\].ren2crh.zndel_2.Z1
+ sg13g2f_DEL4
Xanalog/buflogic.conv.re2cr\[1\].ren2crh.zndel_2.impl2 analog/buflogic.conv.re2cr\[1\].ren2crh.zndel_2.Z1
+ AVDD VSS analog/buflogic.conv.re2cr\[1\].ren2crh.ZNLD2 sg13g2f_BUFFD2
Xanalog/buflogic.conv.re2cr\[1\].ren2crh.zndel_3.impl1 analog/buflogic.conv.re2cr\[1\].ren2crh.ZNLD2
+ AVDD VSS analog/buflogic.conv.re2cr\[1\].ren2crh.zndel_3.Z1
+ sg13g2f_DEL4
Xanalog/buflogic.conv.re2cr\[1\].ren2crh.zndel_3.impl2 analog/buflogic.conv.re2cr\[1\].ren2crh.zndel_3.Z1
+ AVDD VSS analog/buflogic.conv.re2cr\[1\].ren2crh.ZNLD3 sg13g2f_BUFFD2
Xanalog/buflogic.conv.re2cr\[1\].rep2crl.ibuf16.impl RESULT[1]
+ AVDD VSS analog/buflogic.conv.re2cr\[1\].rep2crl.ZL sg13g2f_BUFFD16
Xanalog/buflogic.conv.re2cr\[1\].rep2crl.ln1.impl analog/buflogic.conv.re2cr\[1\].rep2crl.ZL
+ AVDD VSS analog/buflogic.conv.re2cr\[1\].rep2crl.ZNL sg13g2f_INVD8
Xanalog/buflogic.conv.re2cr\[1\].rep2crl.ln2.impl analog/buflogic.conv.re2cr\[1\].rep2crl.ZNL
+ AVDD VSS analog/buflogic.conv.re2cr\[1\].rep2crl.ZL sg13g2f_INVD8
Xanalog/buflogic.conv.re2cr\[1\].rep2crl.zbuf.impl analog/buflogic.conv.re2cr\[1\].rep2crl.ZLD3
+ AVDD VSS analog/CRL\[0\] sg13g2f_BUFFD16
Xanalog/buflogic.conv.re2cr\[1\].rep2crl.zdel_1.impl1 analog/buflogic.conv.re2cr\[1\].rep2crl.ZL
+ AVDD VSS analog/buflogic.conv.re2cr\[1\].rep2crl.zdel_1.Z1
+ sg13g2f_DEL4
Xanalog/buflogic.conv.re2cr\[1\].rep2crl.zdel_1.impl2 analog/buflogic.conv.re2cr\[1\].rep2crl.zdel_1.Z1
+ AVDD VSS analog/buflogic.conv.re2cr\[1\].rep2crl.ZLD1 sg13g2f_BUFFD2
Xanalog/buflogic.conv.re2cr\[1\].rep2crl.zdel_2.impl1 analog/buflogic.conv.re2cr\[1\].rep2crl.ZLD1
+ AVDD VSS analog/buflogic.conv.re2cr\[1\].rep2crl.zdel_2.Z1
+ sg13g2f_DEL4
Xanalog/buflogic.conv.re2cr\[1\].rep2crl.zdel_2.impl2 analog/buflogic.conv.re2cr\[1\].rep2crl.zdel_2.Z1
+ AVDD VSS analog/buflogic.conv.re2cr\[1\].rep2crl.ZLD2 sg13g2f_BUFFD2
Xanalog/buflogic.conv.re2cr\[1\].rep2crl.zdel_3.impl1 analog/buflogic.conv.re2cr\[1\].rep2crl.ZLD2
+ AVDD VSS analog/buflogic.conv.re2cr\[1\].rep2crl.zdel_3.Z1
+ sg13g2f_DEL4
Xanalog/buflogic.conv.re2cr\[1\].rep2crl.zdel_3.impl2 analog/buflogic.conv.re2cr\[1\].rep2crl.zdel_3.Z1
+ AVDD VSS analog/buflogic.conv.re2cr\[1\].rep2crl.ZLD3 sg13g2f_BUFFD2
Xanalog/buflogic.conv.re2cr\[1\].rep2crl.znbuf.impl analog/buflogic.conv.re2cr\[1\].rep2crl.ZNLD3
+ AVDD VSS analog/CRLB\[0\] sg13g2f_BUFFD16
Xanalog/buflogic.conv.re2cr\[1\].rep2crl.zndel_1.impl1 analog/buflogic.conv.re2cr\[1\].rep2crl.ZNL
+ AVDD VSS analog/buflogic.conv.re2cr\[1\].rep2crl.zndel_1.Z1
+ sg13g2f_DEL4
Xanalog/buflogic.conv.re2cr\[1\].rep2crl.zndel_1.impl2 analog/buflogic.conv.re2cr\[1\].rep2crl.zndel_1.Z1
+ AVDD VSS analog/buflogic.conv.re2cr\[1\].rep2crl.ZNLD1 sg13g2f_BUFFD2
Xanalog/buflogic.conv.re2cr\[1\].rep2crl.zndel_2.impl1 analog/buflogic.conv.re2cr\[1\].rep2crl.ZNLD1
+ AVDD VSS analog/buflogic.conv.re2cr\[1\].rep2crl.zndel_2.Z1
+ sg13g2f_DEL4
Xanalog/buflogic.conv.re2cr\[1\].rep2crl.zndel_2.impl2 analog/buflogic.conv.re2cr\[1\].rep2crl.zndel_2.Z1
+ AVDD VSS analog/buflogic.conv.re2cr\[1\].rep2crl.ZNLD2 sg13g2f_BUFFD2
Xanalog/buflogic.conv.re2cr\[1\].rep2crl.zndel_3.impl1 analog/buflogic.conv.re2cr\[1\].rep2crl.ZNLD2
+ AVDD VSS analog/buflogic.conv.re2cr\[1\].rep2crl.zndel_3.Z1
+ sg13g2f_DEL4
Xanalog/buflogic.conv.re2cr\[1\].rep2crl.zndel_3.impl2 analog/buflogic.conv.re2cr\[1\].rep2crl.zndel_3.Z1
+ AVDD VSS analog/buflogic.conv.re2cr\[1\].rep2crl.ZNLD3 sg13g2f_BUFFD2
Xanalog/buflogic.conv.re2cr\[2\].ren2crh.ibuf16.impl RESULTN\[2\]
+ AVDD VSS analog/buflogic.conv.re2cr\[2\].ren2crh.ZL sg13g2f_BUFFD16
Xanalog/buflogic.conv.re2cr\[2\].ren2crh.ln1.impl analog/buflogic.conv.re2cr\[2\].ren2crh.ZL
+ AVDD VSS analog/buflogic.conv.re2cr\[2\].ren2crh.ZNL sg13g2f_INVD8
Xanalog/buflogic.conv.re2cr\[2\].ren2crh.ln2.impl analog/buflogic.conv.re2cr\[2\].ren2crh.ZNL
+ AVDD VSS analog/buflogic.conv.re2cr\[2\].ren2crh.ZL sg13g2f_INVD8
Xanalog/buflogic.conv.re2cr\[2\].ren2crh.zbuf.impl analog/buflogic.conv.re2cr\[2\].ren2crh.ZLD3
+ AVDD VSS analog/CRH\[1\] sg13g2f_BUFFD16
Xanalog/buflogic.conv.re2cr\[2\].ren2crh.zdel_1.impl1 analog/buflogic.conv.re2cr\[2\].ren2crh.ZL
+ AVDD VSS analog/buflogic.conv.re2cr\[2\].ren2crh.zdel_1.Z1
+ sg13g2f_DEL4
Xanalog/buflogic.conv.re2cr\[2\].ren2crh.zdel_1.impl2 analog/buflogic.conv.re2cr\[2\].ren2crh.zdel_1.Z1
+ AVDD VSS analog/buflogic.conv.re2cr\[2\].ren2crh.ZLD1 sg13g2f_BUFFD2
Xanalog/buflogic.conv.re2cr\[2\].ren2crh.zdel_2.impl1 analog/buflogic.conv.re2cr\[2\].ren2crh.ZLD1
+ AVDD VSS analog/buflogic.conv.re2cr\[2\].ren2crh.zdel_2.Z1
+ sg13g2f_DEL4
Xanalog/buflogic.conv.re2cr\[2\].ren2crh.zdel_2.impl2 analog/buflogic.conv.re2cr\[2\].ren2crh.zdel_2.Z1
+ AVDD VSS analog/buflogic.conv.re2cr\[2\].ren2crh.ZLD2 sg13g2f_BUFFD2
Xanalog/buflogic.conv.re2cr\[2\].ren2crh.zdel_3.impl1 analog/buflogic.conv.re2cr\[2\].ren2crh.ZLD2
+ AVDD VSS analog/buflogic.conv.re2cr\[2\].ren2crh.zdel_3.Z1
+ sg13g2f_DEL4
Xanalog/buflogic.conv.re2cr\[2\].ren2crh.zdel_3.impl2 analog/buflogic.conv.re2cr\[2\].ren2crh.zdel_3.Z1
+ AVDD VSS analog/buflogic.conv.re2cr\[2\].ren2crh.ZLD3 sg13g2f_BUFFD2
Xanalog/buflogic.conv.re2cr\[2\].ren2crh.znbuf.impl analog/buflogic.conv.re2cr\[2\].ren2crh.ZNLD3
+ AVDD VSS analog/CRHB\[1\] sg13g2f_BUFFD16
Xanalog/buflogic.conv.re2cr\[2\].ren2crh.zndel_1.impl1 analog/buflogic.conv.re2cr\[2\].ren2crh.ZNL
+ AVDD VSS analog/buflogic.conv.re2cr\[2\].ren2crh.zndel_1.Z1
+ sg13g2f_DEL4
Xanalog/buflogic.conv.re2cr\[2\].ren2crh.zndel_1.impl2 analog/buflogic.conv.re2cr\[2\].ren2crh.zndel_1.Z1
+ AVDD VSS analog/buflogic.conv.re2cr\[2\].ren2crh.ZNLD1 sg13g2f_BUFFD2
Xanalog/buflogic.conv.re2cr\[2\].ren2crh.zndel_2.impl1 analog/buflogic.conv.re2cr\[2\].ren2crh.ZNLD1
+ AVDD VSS analog/buflogic.conv.re2cr\[2\].ren2crh.zndel_2.Z1
+ sg13g2f_DEL4
Xanalog/buflogic.conv.re2cr\[2\].ren2crh.zndel_2.impl2 analog/buflogic.conv.re2cr\[2\].ren2crh.zndel_2.Z1
+ AVDD VSS analog/buflogic.conv.re2cr\[2\].ren2crh.ZNLD2 sg13g2f_BUFFD2
Xanalog/buflogic.conv.re2cr\[2\].ren2crh.zndel_3.impl1 analog/buflogic.conv.re2cr\[2\].ren2crh.ZNLD2
+ AVDD VSS analog/buflogic.conv.re2cr\[2\].ren2crh.zndel_3.Z1
+ sg13g2f_DEL4
Xanalog/buflogic.conv.re2cr\[2\].ren2crh.zndel_3.impl2 analog/buflogic.conv.re2cr\[2\].ren2crh.zndel_3.Z1
+ AVDD VSS analog/buflogic.conv.re2cr\[2\].ren2crh.ZNLD3 sg13g2f_BUFFD2
Xanalog/buflogic.conv.re2cr\[2\].rep2crl.ibuf16.impl RESULT[2]
+ AVDD VSS analog/buflogic.conv.re2cr\[2\].rep2crl.ZL sg13g2f_BUFFD16
Xanalog/buflogic.conv.re2cr\[2\].rep2crl.ln1.impl analog/buflogic.conv.re2cr\[2\].rep2crl.ZL
+ AVDD VSS analog/buflogic.conv.re2cr\[2\].rep2crl.ZNL sg13g2f_INVD8
Xanalog/buflogic.conv.re2cr\[2\].rep2crl.ln2.impl analog/buflogic.conv.re2cr\[2\].rep2crl.ZNL
+ AVDD VSS analog/buflogic.conv.re2cr\[2\].rep2crl.ZL sg13g2f_INVD8
Xanalog/buflogic.conv.re2cr\[2\].rep2crl.zbuf.impl analog/buflogic.conv.re2cr\[2\].rep2crl.ZLD3
+ AVDD VSS analog/CRL\[1\] sg13g2f_BUFFD16
Xanalog/buflogic.conv.re2cr\[2\].rep2crl.zdel_1.impl1 analog/buflogic.conv.re2cr\[2\].rep2crl.ZL
+ AVDD VSS analog/buflogic.conv.re2cr\[2\].rep2crl.zdel_1.Z1
+ sg13g2f_DEL4
Xanalog/buflogic.conv.re2cr\[2\].rep2crl.zdel_1.impl2 analog/buflogic.conv.re2cr\[2\].rep2crl.zdel_1.Z1
+ AVDD VSS analog/buflogic.conv.re2cr\[2\].rep2crl.ZLD1 sg13g2f_BUFFD2
Xanalog/buflogic.conv.re2cr\[2\].rep2crl.zdel_2.impl1 analog/buflogic.conv.re2cr\[2\].rep2crl.ZLD1
+ AVDD VSS analog/buflogic.conv.re2cr\[2\].rep2crl.zdel_2.Z1
+ sg13g2f_DEL4
Xanalog/buflogic.conv.re2cr\[2\].rep2crl.zdel_2.impl2 analog/buflogic.conv.re2cr\[2\].rep2crl.zdel_2.Z1
+ AVDD VSS analog/buflogic.conv.re2cr\[2\].rep2crl.ZLD2 sg13g2f_BUFFD2
Xanalog/buflogic.conv.re2cr\[2\].rep2crl.zdel_3.impl1 analog/buflogic.conv.re2cr\[2\].rep2crl.ZLD2
+ AVDD VSS analog/buflogic.conv.re2cr\[2\].rep2crl.zdel_3.Z1
+ sg13g2f_DEL4
Xanalog/buflogic.conv.re2cr\[2\].rep2crl.zdel_3.impl2 analog/buflogic.conv.re2cr\[2\].rep2crl.zdel_3.Z1
+ AVDD VSS analog/buflogic.conv.re2cr\[2\].rep2crl.ZLD3 sg13g2f_BUFFD2
Xanalog/buflogic.conv.re2cr\[2\].rep2crl.znbuf.impl analog/buflogic.conv.re2cr\[2\].rep2crl.ZNLD3
+ AVDD VSS analog/CRLB\[1\] sg13g2f_BUFFD16
Xanalog/buflogic.conv.re2cr\[2\].rep2crl.zndel_1.impl1 analog/buflogic.conv.re2cr\[2\].rep2crl.ZNL
+ AVDD VSS analog/buflogic.conv.re2cr\[2\].rep2crl.zndel_1.Z1
+ sg13g2f_DEL4
Xanalog/buflogic.conv.re2cr\[2\].rep2crl.zndel_1.impl2 analog/buflogic.conv.re2cr\[2\].rep2crl.zndel_1.Z1
+ AVDD VSS analog/buflogic.conv.re2cr\[2\].rep2crl.ZNLD1 sg13g2f_BUFFD2
Xanalog/buflogic.conv.re2cr\[2\].rep2crl.zndel_2.impl1 analog/buflogic.conv.re2cr\[2\].rep2crl.ZNLD1
+ AVDD VSS analog/buflogic.conv.re2cr\[2\].rep2crl.zndel_2.Z1
+ sg13g2f_DEL4
Xanalog/buflogic.conv.re2cr\[2\].rep2crl.zndel_2.impl2 analog/buflogic.conv.re2cr\[2\].rep2crl.zndel_2.Z1
+ AVDD VSS analog/buflogic.conv.re2cr\[2\].rep2crl.ZNLD2 sg13g2f_BUFFD2
Xanalog/buflogic.conv.re2cr\[2\].rep2crl.zndel_3.impl1 analog/buflogic.conv.re2cr\[2\].rep2crl.ZNLD2
+ AVDD VSS analog/buflogic.conv.re2cr\[2\].rep2crl.zndel_3.Z1
+ sg13g2f_DEL4
Xanalog/buflogic.conv.re2cr\[2\].rep2crl.zndel_3.impl2 analog/buflogic.conv.re2cr\[2\].rep2crl.zndel_3.Z1
+ AVDD VSS analog/buflogic.conv.re2cr\[2\].rep2crl.ZNLD3 sg13g2f_BUFFD2
Xanalog/buflogic.conv.re2cr\[3\].ren2crh.ibuf16.impl RESULTN\[3\]
+ AVDD VSS analog/buflogic.conv.re2cr\[3\].ren2crh.ZL sg13g2f_BUFFD16
Xanalog/buflogic.conv.re2cr\[3\].ren2crh.ln1.impl analog/buflogic.conv.re2cr\[3\].ren2crh.ZL
+ AVDD VSS analog/buflogic.conv.re2cr\[3\].ren2crh.ZNL sg13g2f_INVD8
Xanalog/buflogic.conv.re2cr\[3\].ren2crh.ln2.impl analog/buflogic.conv.re2cr\[3\].ren2crh.ZNL
+ AVDD VSS analog/buflogic.conv.re2cr\[3\].ren2crh.ZL sg13g2f_INVD8
Xanalog/buflogic.conv.re2cr\[3\].ren2crh.zbuf.impl analog/buflogic.conv.re2cr\[3\].ren2crh.ZLD3
+ AVDD VSS analog/CRH\[2\] sg13g2f_BUFFD16
Xanalog/buflogic.conv.re2cr\[3\].ren2crh.zdel_1.impl1 analog/buflogic.conv.re2cr\[3\].ren2crh.ZL
+ AVDD VSS analog/buflogic.conv.re2cr\[3\].ren2crh.zdel_1.Z1
+ sg13g2f_DEL4
Xanalog/buflogic.conv.re2cr\[3\].ren2crh.zdel_1.impl2 analog/buflogic.conv.re2cr\[3\].ren2crh.zdel_1.Z1
+ AVDD VSS analog/buflogic.conv.re2cr\[3\].ren2crh.ZLD1 sg13g2f_BUFFD2
Xanalog/buflogic.conv.re2cr\[3\].ren2crh.zdel_2.impl1 analog/buflogic.conv.re2cr\[3\].ren2crh.ZLD1
+ AVDD VSS analog/buflogic.conv.re2cr\[3\].ren2crh.zdel_2.Z1
+ sg13g2f_DEL4
Xanalog/buflogic.conv.re2cr\[3\].ren2crh.zdel_2.impl2 analog/buflogic.conv.re2cr\[3\].ren2crh.zdel_2.Z1
+ AVDD VSS analog/buflogic.conv.re2cr\[3\].ren2crh.ZLD2 sg13g2f_BUFFD2
Xanalog/buflogic.conv.re2cr\[3\].ren2crh.zdel_3.impl1 analog/buflogic.conv.re2cr\[3\].ren2crh.ZLD2
+ AVDD VSS analog/buflogic.conv.re2cr\[3\].ren2crh.zdel_3.Z1
+ sg13g2f_DEL4
Xanalog/buflogic.conv.re2cr\[3\].ren2crh.zdel_3.impl2 analog/buflogic.conv.re2cr\[3\].ren2crh.zdel_3.Z1
+ AVDD VSS analog/buflogic.conv.re2cr\[3\].ren2crh.ZLD3 sg13g2f_BUFFD2
Xanalog/buflogic.conv.re2cr\[3\].ren2crh.znbuf.impl analog/buflogic.conv.re2cr\[3\].ren2crh.ZNLD3
+ AVDD VSS analog/CRHB\[2\] sg13g2f_BUFFD16
Xanalog/buflogic.conv.re2cr\[3\].ren2crh.zndel_1.impl1 analog/buflogic.conv.re2cr\[3\].ren2crh.ZNL
+ AVDD VSS analog/buflogic.conv.re2cr\[3\].ren2crh.zndel_1.Z1
+ sg13g2f_DEL4
Xanalog/buflogic.conv.re2cr\[3\].ren2crh.zndel_1.impl2 analog/buflogic.conv.re2cr\[3\].ren2crh.zndel_1.Z1
+ AVDD VSS analog/buflogic.conv.re2cr\[3\].ren2crh.ZNLD1 sg13g2f_BUFFD2
Xanalog/buflogic.conv.re2cr\[3\].ren2crh.zndel_2.impl1 analog/buflogic.conv.re2cr\[3\].ren2crh.ZNLD1
+ AVDD VSS analog/buflogic.conv.re2cr\[3\].ren2crh.zndel_2.Z1
+ sg13g2f_DEL4
Xanalog/buflogic.conv.re2cr\[3\].ren2crh.zndel_2.impl2 analog/buflogic.conv.re2cr\[3\].ren2crh.zndel_2.Z1
+ AVDD VSS analog/buflogic.conv.re2cr\[3\].ren2crh.ZNLD2 sg13g2f_BUFFD2
Xanalog/buflogic.conv.re2cr\[3\].ren2crh.zndel_3.impl1 analog/buflogic.conv.re2cr\[3\].ren2crh.ZNLD2
+ AVDD VSS analog/buflogic.conv.re2cr\[3\].ren2crh.zndel_3.Z1
+ sg13g2f_DEL4
Xanalog/buflogic.conv.re2cr\[3\].ren2crh.zndel_3.impl2 analog/buflogic.conv.re2cr\[3\].ren2crh.zndel_3.Z1
+ AVDD VSS analog/buflogic.conv.re2cr\[3\].ren2crh.ZNLD3 sg13g2f_BUFFD2
Xanalog/buflogic.conv.re2cr\[3\].rep2crl.ibuf16.impl RESULT[3]
+ AVDD VSS analog/buflogic.conv.re2cr\[3\].rep2crl.ZL sg13g2f_BUFFD16
Xanalog/buflogic.conv.re2cr\[3\].rep2crl.ln1.impl analog/buflogic.conv.re2cr\[3\].rep2crl.ZL
+ AVDD VSS analog/buflogic.conv.re2cr\[3\].rep2crl.ZNL sg13g2f_INVD8
Xanalog/buflogic.conv.re2cr\[3\].rep2crl.ln2.impl analog/buflogic.conv.re2cr\[3\].rep2crl.ZNL
+ AVDD VSS analog/buflogic.conv.re2cr\[3\].rep2crl.ZL sg13g2f_INVD8
Xanalog/buflogic.conv.re2cr\[3\].rep2crl.zbuf.impl analog/buflogic.conv.re2cr\[3\].rep2crl.ZLD3
+ AVDD VSS analog/CRL\[2\] sg13g2f_BUFFD16
Xanalog/buflogic.conv.re2cr\[3\].rep2crl.zdel_1.impl1 analog/buflogic.conv.re2cr\[3\].rep2crl.ZL
+ AVDD VSS analog/buflogic.conv.re2cr\[3\].rep2crl.zdel_1.Z1
+ sg13g2f_DEL4
Xanalog/buflogic.conv.re2cr\[3\].rep2crl.zdel_1.impl2 analog/buflogic.conv.re2cr\[3\].rep2crl.zdel_1.Z1
+ AVDD VSS analog/buflogic.conv.re2cr\[3\].rep2crl.ZLD1 sg13g2f_BUFFD2
Xanalog/buflogic.conv.re2cr\[3\].rep2crl.zdel_2.impl1 analog/buflogic.conv.re2cr\[3\].rep2crl.ZLD1
+ AVDD VSS analog/buflogic.conv.re2cr\[3\].rep2crl.zdel_2.Z1
+ sg13g2f_DEL4
Xanalog/buflogic.conv.re2cr\[3\].rep2crl.zdel_2.impl2 analog/buflogic.conv.re2cr\[3\].rep2crl.zdel_2.Z1
+ AVDD VSS analog/buflogic.conv.re2cr\[3\].rep2crl.ZLD2 sg13g2f_BUFFD2
Xanalog/buflogic.conv.re2cr\[3\].rep2crl.zdel_3.impl1 analog/buflogic.conv.re2cr\[3\].rep2crl.ZLD2
+ AVDD VSS analog/buflogic.conv.re2cr\[3\].rep2crl.zdel_3.Z1
+ sg13g2f_DEL4
Xanalog/buflogic.conv.re2cr\[3\].rep2crl.zdel_3.impl2 analog/buflogic.conv.re2cr\[3\].rep2crl.zdel_3.Z1
+ AVDD VSS analog/buflogic.conv.re2cr\[3\].rep2crl.ZLD3 sg13g2f_BUFFD2
Xanalog/buflogic.conv.re2cr\[3\].rep2crl.znbuf.impl analog/buflogic.conv.re2cr\[3\].rep2crl.ZNLD3
+ AVDD VSS analog/CRLB\[2\] sg13g2f_BUFFD16
Xanalog/buflogic.conv.re2cr\[3\].rep2crl.zndel_1.impl1 analog/buflogic.conv.re2cr\[3\].rep2crl.ZNL
+ AVDD VSS analog/buflogic.conv.re2cr\[3\].rep2crl.zndel_1.Z1
+ sg13g2f_DEL4
Xanalog/buflogic.conv.re2cr\[3\].rep2crl.zndel_1.impl2 analog/buflogic.conv.re2cr\[3\].rep2crl.zndel_1.Z1
+ AVDD VSS analog/buflogic.conv.re2cr\[3\].rep2crl.ZNLD1 sg13g2f_BUFFD2
Xanalog/buflogic.conv.re2cr\[3\].rep2crl.zndel_2.impl1 analog/buflogic.conv.re2cr\[3\].rep2crl.ZNLD1
+ AVDD VSS analog/buflogic.conv.re2cr\[3\].rep2crl.zndel_2.Z1
+ sg13g2f_DEL4
Xanalog/buflogic.conv.re2cr\[3\].rep2crl.zndel_2.impl2 analog/buflogic.conv.re2cr\[3\].rep2crl.zndel_2.Z1
+ AVDD VSS analog/buflogic.conv.re2cr\[3\].rep2crl.ZNLD2 sg13g2f_BUFFD2
Xanalog/buflogic.conv.re2cr\[3\].rep2crl.zndel_3.impl1 analog/buflogic.conv.re2cr\[3\].rep2crl.ZNLD2
+ AVDD VSS analog/buflogic.conv.re2cr\[3\].rep2crl.zndel_3.Z1
+ sg13g2f_DEL4
Xanalog/buflogic.conv.re2cr\[3\].rep2crl.zndel_3.impl2 analog/buflogic.conv.re2cr\[3\].rep2crl.zndel_3.Z1
+ AVDD VSS analog/buflogic.conv.re2cr\[3\].rep2crl.ZNLD3 sg13g2f_BUFFD2
Xanalog/buflogic.conv.re2cr\[4\].ren2crh.ibuf16.impl RESULTN\[4\]
+ AVDD VSS analog/buflogic.conv.re2cr\[4\].ren2crh.ZL sg13g2f_BUFFD16
Xanalog/buflogic.conv.re2cr\[4\].ren2crh.ln1.impl analog/buflogic.conv.re2cr\[4\].ren2crh.ZL
+ AVDD VSS analog/buflogic.conv.re2cr\[4\].ren2crh.ZNL sg13g2f_INVD8
Xanalog/buflogic.conv.re2cr\[4\].ren2crh.ln2.impl analog/buflogic.conv.re2cr\[4\].ren2crh.ZNL
+ AVDD VSS analog/buflogic.conv.re2cr\[4\].ren2crh.ZL sg13g2f_INVD8
Xanalog/buflogic.conv.re2cr\[4\].ren2crh.zbuf.impl analog/buflogic.conv.re2cr\[4\].ren2crh.ZLD3
+ AVDD VSS analog/CRH\[3\] sg13g2f_BUFFD16
Xanalog/buflogic.conv.re2cr\[4\].ren2crh.zdel_1.impl1 analog/buflogic.conv.re2cr\[4\].ren2crh.ZL
+ AVDD VSS analog/buflogic.conv.re2cr\[4\].ren2crh.zdel_1.Z1
+ sg13g2f_DEL4
Xanalog/buflogic.conv.re2cr\[4\].ren2crh.zdel_1.impl2 analog/buflogic.conv.re2cr\[4\].ren2crh.zdel_1.Z1
+ AVDD VSS analog/buflogic.conv.re2cr\[4\].ren2crh.ZLD1 sg13g2f_BUFFD2
Xanalog/buflogic.conv.re2cr\[4\].ren2crh.zdel_2.impl1 analog/buflogic.conv.re2cr\[4\].ren2crh.ZLD1
+ AVDD VSS analog/buflogic.conv.re2cr\[4\].ren2crh.zdel_2.Z1
+ sg13g2f_DEL4
Xanalog/buflogic.conv.re2cr\[4\].ren2crh.zdel_2.impl2 analog/buflogic.conv.re2cr\[4\].ren2crh.zdel_2.Z1
+ AVDD VSS analog/buflogic.conv.re2cr\[4\].ren2crh.ZLD2 sg13g2f_BUFFD2
Xanalog/buflogic.conv.re2cr\[4\].ren2crh.zdel_3.impl1 analog/buflogic.conv.re2cr\[4\].ren2crh.ZLD2
+ AVDD VSS analog/buflogic.conv.re2cr\[4\].ren2crh.zdel_3.Z1
+ sg13g2f_DEL4
Xanalog/buflogic.conv.re2cr\[4\].ren2crh.zdel_3.impl2 analog/buflogic.conv.re2cr\[4\].ren2crh.zdel_3.Z1
+ AVDD VSS analog/buflogic.conv.re2cr\[4\].ren2crh.ZLD3 sg13g2f_BUFFD2
Xanalog/buflogic.conv.re2cr\[4\].ren2crh.znbuf.impl analog/buflogic.conv.re2cr\[4\].ren2crh.ZNLD3
+ AVDD VSS analog/CRHB\[3\] sg13g2f_BUFFD16
Xanalog/buflogic.conv.re2cr\[4\].ren2crh.zndel_1.impl1 analog/buflogic.conv.re2cr\[4\].ren2crh.ZNL
+ AVDD VSS analog/buflogic.conv.re2cr\[4\].ren2crh.zndel_1.Z1
+ sg13g2f_DEL4
Xanalog/buflogic.conv.re2cr\[4\].ren2crh.zndel_1.impl2 analog/buflogic.conv.re2cr\[4\].ren2crh.zndel_1.Z1
+ AVDD VSS analog/buflogic.conv.re2cr\[4\].ren2crh.ZNLD1 sg13g2f_BUFFD2
Xanalog/buflogic.conv.re2cr\[4\].ren2crh.zndel_2.impl1 analog/buflogic.conv.re2cr\[4\].ren2crh.ZNLD1
+ AVDD VSS analog/buflogic.conv.re2cr\[4\].ren2crh.zndel_2.Z1
+ sg13g2f_DEL4
Xanalog/buflogic.conv.re2cr\[4\].ren2crh.zndel_2.impl2 analog/buflogic.conv.re2cr\[4\].ren2crh.zndel_2.Z1
+ AVDD VSS analog/buflogic.conv.re2cr\[4\].ren2crh.ZNLD2 sg13g2f_BUFFD2
Xanalog/buflogic.conv.re2cr\[4\].ren2crh.zndel_3.impl1 analog/buflogic.conv.re2cr\[4\].ren2crh.ZNLD2
+ AVDD VSS analog/buflogic.conv.re2cr\[4\].ren2crh.zndel_3.Z1
+ sg13g2f_DEL4
Xanalog/buflogic.conv.re2cr\[4\].ren2crh.zndel_3.impl2 analog/buflogic.conv.re2cr\[4\].ren2crh.zndel_3.Z1
+ AVDD VSS analog/buflogic.conv.re2cr\[4\].ren2crh.ZNLD3 sg13g2f_BUFFD2
Xanalog/buflogic.conv.re2cr\[4\].rep2crl.ibuf16.impl RESULT[4]
+ AVDD VSS analog/buflogic.conv.re2cr\[4\].rep2crl.ZL sg13g2f_BUFFD16
Xanalog/buflogic.conv.re2cr\[4\].rep2crl.ln1.impl analog/buflogic.conv.re2cr\[4\].rep2crl.ZL
+ AVDD VSS analog/buflogic.conv.re2cr\[4\].rep2crl.ZNL sg13g2f_INVD8
Xanalog/buflogic.conv.re2cr\[4\].rep2crl.ln2.impl analog/buflogic.conv.re2cr\[4\].rep2crl.ZNL
+ AVDD VSS analog/buflogic.conv.re2cr\[4\].rep2crl.ZL sg13g2f_INVD8
Xanalog/buflogic.conv.re2cr\[4\].rep2crl.zbuf.impl analog/buflogic.conv.re2cr\[4\].rep2crl.ZLD3
+ AVDD VSS analog/CRL\[3\] sg13g2f_BUFFD16
Xanalog/buflogic.conv.re2cr\[4\].rep2crl.zdel_1.impl1 analog/buflogic.conv.re2cr\[4\].rep2crl.ZL
+ AVDD VSS analog/buflogic.conv.re2cr\[4\].rep2crl.zdel_1.Z1
+ sg13g2f_DEL4
Xanalog/buflogic.conv.re2cr\[4\].rep2crl.zdel_1.impl2 analog/buflogic.conv.re2cr\[4\].rep2crl.zdel_1.Z1
+ AVDD VSS analog/buflogic.conv.re2cr\[4\].rep2crl.ZLD1 sg13g2f_BUFFD2
Xanalog/buflogic.conv.re2cr\[4\].rep2crl.zdel_2.impl1 analog/buflogic.conv.re2cr\[4\].rep2crl.ZLD1
+ AVDD VSS analog/buflogic.conv.re2cr\[4\].rep2crl.zdel_2.Z1
+ sg13g2f_DEL4
Xanalog/buflogic.conv.re2cr\[4\].rep2crl.zdel_2.impl2 analog/buflogic.conv.re2cr\[4\].rep2crl.zdel_2.Z1
+ AVDD VSS analog/buflogic.conv.re2cr\[4\].rep2crl.ZLD2 sg13g2f_BUFFD2
Xanalog/buflogic.conv.re2cr\[4\].rep2crl.zdel_3.impl1 analog/buflogic.conv.re2cr\[4\].rep2crl.ZLD2
+ AVDD VSS analog/buflogic.conv.re2cr\[4\].rep2crl.zdel_3.Z1
+ sg13g2f_DEL4
Xanalog/buflogic.conv.re2cr\[4\].rep2crl.zdel_3.impl2 analog/buflogic.conv.re2cr\[4\].rep2crl.zdel_3.Z1
+ AVDD VSS analog/buflogic.conv.re2cr\[4\].rep2crl.ZLD3 sg13g2f_BUFFD2
Xanalog/buflogic.conv.re2cr\[4\].rep2crl.znbuf.impl analog/buflogic.conv.re2cr\[4\].rep2crl.ZNLD3
+ AVDD VSS analog/CRLB\[3\] sg13g2f_BUFFD16
Xanalog/buflogic.conv.re2cr\[4\].rep2crl.zndel_1.impl1 analog/buflogic.conv.re2cr\[4\].rep2crl.ZNL
+ AVDD VSS analog/buflogic.conv.re2cr\[4\].rep2crl.zndel_1.Z1
+ sg13g2f_DEL4
Xanalog/buflogic.conv.re2cr\[4\].rep2crl.zndel_1.impl2 analog/buflogic.conv.re2cr\[4\].rep2crl.zndel_1.Z1
+ AVDD VSS analog/buflogic.conv.re2cr\[4\].rep2crl.ZNLD1 sg13g2f_BUFFD2
Xanalog/buflogic.conv.re2cr\[4\].rep2crl.zndel_2.impl1 analog/buflogic.conv.re2cr\[4\].rep2crl.ZNLD1
+ AVDD VSS analog/buflogic.conv.re2cr\[4\].rep2crl.zndel_2.Z1
+ sg13g2f_DEL4
Xanalog/buflogic.conv.re2cr\[4\].rep2crl.zndel_2.impl2 analog/buflogic.conv.re2cr\[4\].rep2crl.zndel_2.Z1
+ AVDD VSS analog/buflogic.conv.re2cr\[4\].rep2crl.ZNLD2 sg13g2f_BUFFD2
Xanalog/buflogic.conv.re2cr\[4\].rep2crl.zndel_3.impl1 analog/buflogic.conv.re2cr\[4\].rep2crl.ZNLD2
+ AVDD VSS analog/buflogic.conv.re2cr\[4\].rep2crl.zndel_3.Z1
+ sg13g2f_DEL4
Xanalog/buflogic.conv.re2cr\[4\].rep2crl.zndel_3.impl2 analog/buflogic.conv.re2cr\[4\].rep2crl.zndel_3.Z1
+ AVDD VSS analog/buflogic.conv.re2cr\[4\].rep2crl.ZNLD3 sg13g2f_BUFFD2
Xanalog/buflogic.conv.smpcs.choldb.impl analog/buflogic.HOLD
+ AVDD VSS analog/buflogic.conv.smpcs.CHOLDB sg13g2f_INVD8
Xanalog/buflogic.conv.smpcs.choldb1.impl analog/buflogic.conv.smpcs.CHOLDB
+ AVDD VSS analog/buflogic.conv.smpcs.CHOLDB1 sg13g2f_BUFFD8
Xanalog/buflogic.conv.smpcs.clkbuf.impl clknet_1_0__leaf_CLK_regs
+ AVDD VSS CLKBUF sg13g2f_BUFFD16
Xanalog/buflogic.conv.smpcs.clkbufd1.impl1 CLKBUF AVDD VSS
+ analog/buflogic.conv.smpcs.clkbufd1.Z1 sg13g2f_DEL4
Xanalog/buflogic.conv.smpcs.clkbufd1.impl2 analog/buflogic.conv.smpcs.clkbufd1.Z1
+ AVDD VSS analog/buflogic.conv.smpcs.CLKBUFD1 sg13g2f_BUFFD4
Xanalog/buflogic.conv.smpcs.clkbufd2.impl1 analog/buflogic.conv.smpcs.CLKBUFD1
+ AVDD VSS analog/buflogic.conv.smpcs.clkbufd2.Z1 sg13g2f_DEL4
Xanalog/buflogic.conv.smpcs.clkbufd2.impl2 analog/buflogic.conv.smpcs.clkbufd2.Z1
+ AVDD VSS analog/buflogic.conv.smpcs.CLKBUFD2 sg13g2f_BUFFD4
Xanalog/buflogic.conv.smpcs.clkbufd3.impl1 analog/buflogic.conv.smpcs.CLKBUFD2
+ AVDD VSS analog/buflogic.conv.smpcs.clkbufd3.Z1 sg13g2f_DEL4
Xanalog/buflogic.conv.smpcs.clkbufd3.impl2 analog/buflogic.conv.smpcs.clkbufd3.Z1
+ AVDD VSS analog/buflogic.conv.smpcs.CLKBUFD3 sg13g2f_BUFFD4
Xanalog/buflogic.conv.smpcs.cpreand.impl analog/buflogic.conv.smpcs.CHOLDB1
+ analog/buflogic.conv.smpcs.CLKBUFD3 AVDD VSS analog/buflogic.PRE
+ sg13g2f_AN2D4
Xanalog/buflogic.conv.smpcs.invsmp.impl SAMPLE AVDD VSS analog/buflogic.HOLD
+ sg13g2f_INVD8
Xanalog/buflogic.lnbuf_ccmp.del4.impl1 analog/buflogic.CMP
+ AVDD VSS analog/buflogic.lnbuf_ccmp.del4.Z1 sg13g2f_DEL4
Xanalog/buflogic.lnbuf_ccmp.del4.impl2 analog/buflogic.lnbuf_ccmp.del4.Z1
+ AVDD VSS analog/buflogic.lnbuf_ccmp.ID sg13g2f_BUFFD4
Xanalog/buflogic.lnbuf_ccmp.deland.impl analog/buflogic.CMP
+ analog/buflogic.lnbuf_ccmp.ID AVDD VSS analog/buflogic.lnbuf_ccmp.IP
+ sg13g2f_AN2D4
Xanalog/buflogic.lnbuf_ccmp.delbuf16.impl analog/buflogic.lnbuf_ccmp.IP
+ AVDD VSS analog/CCMP sg13g2f_BUFFD16
Xanalog/buflogic.lnbuf_ccmp.ln1.impl analog/buflogic.CMP AVDD
+ VSS analog/buflogic.lnbuf_ccmp.IL sg13g2f_INVD6
Xanalog/buflogic.lnbuf_ccmp.ln2.impl analog/buflogic.lnbuf_ccmp.IL
+ AVDD VSS analog/buflogic.CMP sg13g2f_INVD6
Xanalog/buflogic.lnbuf_ccmp.lnbbuf16.impl analog/buflogic.lnbuf_ccmp.ILBUF
+ AVDD VSS analog/CCMPB sg13g2f_BUFFD16
Xanalog/buflogic.lnbuf_ccmp.lnbbuf4.impl analog/buflogic.lnbuf_ccmp.IL
+ AVDD VSS analog/buflogic.lnbuf_ccmp.ILBUF sg13g2f_BUFFD4
Xanalog/buflogic.lnbuf_chold.ibuf16.impl analog/buflogic.HOLD
+ AVDD VSS analog/buflogic.lnbuf_chold.N3 sg13g2f_BUFFD16
Xanalog/buflogic.lnbuf_chold.ln1.impl analog/buflogic.lnbuf_chold.N3
+ AVDD VSS analog/buflogic.lnbuf_chold.N2 sg13g2f_INVD8
Xanalog/buflogic.lnbuf_chold.ln2.impl analog/buflogic.lnbuf_chold.N2
+ AVDD VSS analog/buflogic.lnbuf_chold.N3 sg13g2f_INVD8
Xanalog/buflogic.lnbuf_chold.zbuf16_1.impl analog/buflogic.lnbuf_chold.N1
+ AVDD VSS analog/CHOLD sg13g2f_BUFFD16
Xanalog/buflogic.lnbuf_chold.zbuf16_2.impl analog/buflogic.lnbuf_chold.N1
+ AVDD VSS analog/CHOLD sg13g2f_BUFFD16
Xanalog/buflogic.lnbuf_chold.zbuf8.impl analog/buflogic.lnbuf_chold.N3
+ AVDD VSS analog/buflogic.lnbuf_chold.N1 sg13g2f_BUFFD8
Xanalog/buflogic.lnbuf_chold.znbuf16_1.impl analog/buflogic.lnbuf_chold.N2
+ AVDD VSS analog/CHOLDB sg13g2f_BUFFD16
Xanalog/buflogic.lnbuf_chold.znbuf16_2.impl analog/buflogic.lnbuf_chold.N2
+ AVDD VSS analog/CHOLDB sg13g2f_BUFFD16
Xanalog/buflogic.lnbuf_cpre.ibuf16.impl analog/buflogic.PRE
+ AVDD VSS analog/buflogic.lnbuf_cpre.N3 sg13g2f_BUFFD16
Xanalog/buflogic.lnbuf_cpre.ln1.impl analog/buflogic.lnbuf_cpre.N3
+ AVDD VSS analog/buflogic.lnbuf_cpre.N2 sg13g2f_INVD8
Xanalog/buflogic.lnbuf_cpre.ln2.impl analog/buflogic.lnbuf_cpre.N2
+ AVDD VSS analog/buflogic.lnbuf_cpre.N3 sg13g2f_INVD8
Xanalog/buflogic.lnbuf_cpre.zbuf16_1.impl analog/buflogic.lnbuf_cpre.N1
+ AVDD VSS analog/CPRE sg13g2f_BUFFD16
Xanalog/buflogic.lnbuf_cpre.zbuf16_2.impl analog/buflogic.lnbuf_cpre.N1
+ AVDD VSS analog/CPRE sg13g2f_BUFFD16
Xanalog/buflogic.lnbuf_cpre.zbuf8.impl analog/buflogic.lnbuf_cpre.N3
+ AVDD VSS analog/buflogic.lnbuf_cpre.N1 sg13g2f_BUFFD8
Xanalog/buflogic.lnbuf_cpre.znbuf16_1.impl analog/buflogic.lnbuf_cpre.N2
+ AVDD VSS analog/CPREB sg13g2f_BUFFD16
Xanalog/buflogic.lnbuf_cpre.znbuf16_2.impl analog/buflogic.lnbuf_cpre.N2
+ AVDD VSS analog/CPREB sg13g2f_BUFFD16
Xanalog/cmp.buf_n0.impl analog/cmp.OUTNp AVDD VSS analog/cmp.OUTNpb
+ sg13g2f_BUFFD0
Xanalog/cmp.buf_n1.impl analog/cmp.OUTNpb AVDD VSS analog/cmp.OUTN
+ sg13g2f_BUFFD2
Xanalog/cmp.buf_p0.impl analog/cmp.OUTPp AVDD VSS analog/cmp.OUTPpb
+ sg13g2f_BUFFD0
Xanalog/cmp.buf_p1.impl analog/cmp.OUTPpb AVDD VSS CMPO sg13g2f_BUFFD2
Xanalog/cmp.n2p.impl analog/cmp.OUTNp analog/CCMP AVDD VSS
+ analog/cmp.OUTPp sg13g2f_ND2D2
Xanalog/cmp.p2n.impl analog/cmp.OUTPp analog/CCMP AVDD VSS
+ analog/cmp.OUTNp sg13g2f_ND2D2
Xanalog/cmp.vn_cmp.impl_0 analog/CCMPB analog/VOUTL analog/CCMP
+ analog/cmp.OUTNp AVDD VSS analog/cmp.OUTPp sg13g2f_OAI211D4
Xanalog/cmp.vn_cmp.impl_1 analog/CCMPB analog/VOUTL analog/CCMP
+ analog/cmp.OUTNp AVDD VSS analog/cmp.OUTPp sg13g2f_OAI211D4
Xanalog/cmp.vn_cmp.impl_2 analog/CCMPB analog/VOUTL analog/CCMP
+ analog/cmp.OUTNp AVDD VSS analog/cmp.OUTPp sg13g2f_OAI211D4
Xanalog/cmp.vn_cmp.impl_3 analog/CCMPB analog/VOUTL analog/CCMP
+ analog/cmp.OUTNp AVDD VSS analog/cmp.OUTPp sg13g2f_OAI211D4
Xanalog/cmp.vp_cmp.impl_0 analog/CCMPB analog/VOUTH analog/CCMP
+ analog/cmp.OUTPp AVDD VSS analog/cmp.OUTNp sg13g2f_OAI211D4
Xanalog/cmp.vp_cmp.impl_1 analog/CCMPB analog/VOUTH analog/CCMP
+ analog/cmp.OUTPp AVDD VSS analog/cmp.OUTNp sg13g2f_OAI211D4
Xanalog/cmp.vp_cmp.impl_2 analog/CCMPB analog/VOUTH analog/CCMP
+ analog/cmp.OUTPp AVDD VSS analog/cmp.OUTNp sg13g2f_OAI211D4
Xanalog/cmp.vp_cmp.impl_3 analog/CCMPB analog/VOUTH analog/CCMP
+ analog/cmp.OUTPp AVDD VSS analog/cmp.OUTNp sg13g2f_OAI211D4
Xanalog/dummy_h.dummy\[0\].dummy.cdac_unit.cap2vouth\[0\].sw_cap2vouth/pgn_lz1
+ analog/dummy_h.dummy\[0\].dummy.CRH analog/dummy_h.dummy\[0\].dummy.VSH
+ analog/dummy_h.dummy\[0\].dummy.VOUTH analog/dummy_h.dummy\[0\].dummy.VSH
+ AVDD VSS SARADC_CELL_INVX0_ASSW
Xanalog/dummy_h.dummy\[0\].dummy.cdac_unit.cap2vouth\[0\].sw_cap2vouth/pgn_lz2
+ analog/dummy_h.dummy\[0\].dummy.CRH analog/dummy_h.dummy\[0\].dummy.VOUTH
+ analog/dummy_h.dummy\[0\].dummy.VSH analog/dummy_h.dummy\[0\].dummy.VOUTH
+ AVDD VSS SARADC_CELL_INVX0_ASSW
Xanalog/dummy_h.dummy\[0\].dummy.cdac_unit.cap2vouth\[0\].sw_cap2vouth/pgp_lz1
+ analog/dummy_h.dummy\[0\].dummy.CRHB analog/dummy_h.dummy\[0\].dummy.VOUTH
+ analog/dummy_h.dummy\[0\].dummy.VSH analog/dummy_h.dummy\[0\].dummy.VSH