** Created by: circuit_gen.AN2D0
** Cell name: AN2D0
** Lib name: sg13g2f
.SUBCKT sg13g2f_AN2D0 a1 a2 vdd vss z
*.PININFO a1:B a2:B vdd:B vss:B z:B 
XM_u2_M_u3 net6 a1 x_u2_net6 vss sg13_lv_nmos l=1.300e-07 w=3.600e-07
XM_u3_M_u2 z net6 vss vss sg13_lv_nmos l=1.300e-07 w=3.600e-07
XM_u2_M_u4 x_u2_net6 a2 vss vss sg13_lv_nmos l=1.300e-07 w=3.600e-07
XM_u3_M_u3 z net6 vdd vdd sg13_lv_pmos l=1.300e-07 w=6.000e-07
XM_u2_M_u2 net6 a2 vdd vdd sg13_lv_pmos l=1.300e-07 w=6.000e-07
XM_u2_M_u1 net6 a1 vdd vdd sg13_lv_pmos l=1.300e-07 w=6.000e-07
.ENDS

** Created by: circuit_gen.AN2D1
** Cell name: AN2D1
** Lib name: sg13g2f
.SUBCKT sg13g2f_AN2D1 a1 a2 vdd vss z
*.PININFO a1:I a2:I z:O vdd:B vss:B 
XM_u2_M_u3 net6 a1 x_u2_net6 vss sg13_lv_nmos l=1.300e-07 w=6.550e-07
XM_u3_M_u2 z net6 vss vss sg13_lv_nmos l=1.300e-07 w=7.200e-07
XM_u2_M_u4 x_u2_net6 a2 vss vss sg13_lv_nmos l=1.300e-07 w=6.550e-07
XM_u3_M_u3 z net6 vdd vdd sg13_lv_pmos l=1.300e-07 w=1.200e-06
XM_u2_M_u2 net6 a2 vdd vdd sg13_lv_pmos l=1.300e-07 w=1.200e-06
XM_u2_M_u1 net6 a1 vdd vdd sg13_lv_pmos l=1.300e-07 w=1.200e-06
.ENDS

** Created by: circuit_gen.AN2D2
** Cell name: AN2D2
** Lib name: sg13g2f
.SUBCKT sg13g2f_AN2D2 a1 a2 vdd vss z
*.PININFO a1:I a2:I z:O vdd:B vss:B 
XM_u2_M_u3 net10 a1 x_u2_net6 vss sg13_lv_nmos l=1.300e-07 w=7.200e-07
XM_u3_M_u2_0 z net10 vss vss sg13_lv_nmos l=1.300e-07 w=7.200e-07
XM_u3_M_u2_1 z net10 vss vss sg13_lv_nmos l=1.300e-07 w=7.200e-07
XM_u2_M_u4 x_u2_net6 a2 vss vss sg13_lv_nmos l=1.300e-07 w=7.200e-07
XM_u3_M_u3_0 z net10 vdd vdd sg13_lv_pmos l=1.300e-07 w=1.200e-06
XM_u3_M_u3_1 z net10 vdd vdd sg13_lv_pmos l=1.300e-07 w=1.200e-06
XM_u2_M_u2 net10 a2 vdd vdd sg13_lv_pmos l=1.300e-07 w=1.200e-06
XM_u2_M_u1 net10 a1 vdd vdd sg13_lv_pmos l=1.300e-07 w=1.200e-06
.ENDS

** Created by: circuit_gen.AN2D4
** Cell name: AN2D4
** Lib name: sg13g2f
.SUBCKT sg13g2f_AN2D4 a1 a2 vdd vss z
*.PININFO a1:I a2:I z:O vdd:B vss:B 
XM_u2_0_M_u3 p0 a1 x_u2_0_net6 vss sg13_lv_nmos l=1.300e-07 w=7.200e-07
XM_u3_0_M_u2 z p0 vss vss sg13_lv_nmos l=1.300e-07 w=7.200e-07
XM_u3_1_M_u2 z p0 vss vss sg13_lv_nmos l=1.300e-07 w=7.200e-07
XM_u3_2_M_u2 z p0 vss vss sg13_lv_nmos l=1.300e-07 w=7.200e-07
XM_u3_3_M_u2 z p0 vss vss sg13_lv_nmos l=1.300e-07 w=7.200e-07
XM_u2_0_M_u4 x_u2_0_net6 a2 vss vss sg13_lv_nmos l=1.300e-07 w=7.200e-07
XM_u2_1_M_u4 x_u2_1_net6 a2 vss vss sg13_lv_nmos l=1.300e-07 w=7.200e-07
XM_u2_1_M_u3 p0 a1 x_u2_1_net6 vss sg13_lv_nmos l=1.300e-07 w=7.200e-07
XM_u3_0_M_u3 z p0 vdd vdd sg13_lv_pmos l=1.300e-07 w=1.200e-06
XM_u3_1_M_u3 z p0 vdd vdd sg13_lv_pmos l=1.300e-07 w=1.200e-06
XM_u3_2_M_u3 z p0 vdd vdd sg13_lv_pmos l=1.300e-07 w=1.200e-06
XM_u3_3_M_u3 z p0 vdd vdd sg13_lv_pmos l=1.300e-07 w=1.200e-06
XM_u2_0_M_u2 p0 a2 vdd vdd sg13_lv_pmos l=1.300e-07 w=1.200e-06
XM_u2_0_M_u1 p0 a1 vdd vdd sg13_lv_pmos l=1.300e-07 w=1.200e-06
XM_u2_1_M_u2 p0 a2 vdd vdd sg13_lv_pmos l=1.300e-07 w=1.200e-06
XM_u2_1_M_u1 p0 a1 vdd vdd sg13_lv_pmos l=1.300e-07 w=1.200e-06
.ENDS

** Created by: circuit_gen.AO21D0
** Cell name: AO21D0
** Lib name: sg13g2f
.SUBCKT sg13g2f_AO21D0 a1 a2 b vdd vss z
*.PININFO a1:I a2:I b:I z:O vdd:B vss:B 
XMI7 net32 a2 vss vss sg13_lv_nmos l=1.300e-07 w=3.600e-07
XM_u7 net59 a1 net32 vss sg13_lv_nmos l=1.300e-07 w=3.600e-07
XMI6 net59 b vss vss sg13_lv_nmos l=1.300e-07 w=3.600e-07
XMI8_M_u2 z net59 vss vss sg13_lv_nmos l=1.300e-07 w=3.600e-07
XM_u3 net22 a1 net59 vdd sg13_lv_pmos l=1.300e-07 w=6.000e-07
XMI8_M_u3 z net59 vdd vdd sg13_lv_pmos l=1.300e-07 w=6.000e-07
XM_u4 net22 a2 net59 vdd sg13_lv_pmos l=1.300e-07 w=6.000e-07
XM_u2 net22 b vdd vdd sg13_lv_pmos l=1.300e-07 w=6.000e-07
.ENDS

** Created by: circuit_gen.AO21D1
** Cell name: AO21D1
** Lib name: sg13g2f
.SUBCKT sg13g2f_AO21D1 a1 a2 b vdd vss z
*.PININFO a1:I a2:I b:I z:O vdd:B vss:B 
XMI7 net32 a2 vss vss sg13_lv_nmos l=1.300e-07 w=7.200e-07
XM_u7 net59 a1 net32 vss sg13_lv_nmos l=1.300e-07 w=7.200e-07
XMI6 net59 b vss vss sg13_lv_nmos l=1.300e-07 w=7.200e-07
XMI8_M_u2 z net59 vss vss sg13_lv_nmos l=1.300e-07 w=7.200e-07
XM_u3 net22 a1 net59 vdd sg13_lv_pmos l=1.300e-07 w=1.200e-06
XMI8_M_u3 z net59 vdd vdd sg13_lv_pmos l=1.300e-07 w=1.200e-06
XM_u4 net22 a2 net59 vdd sg13_lv_pmos l=1.300e-07 w=1.200e-06
XM_u2 net22 b vdd vdd sg13_lv_pmos l=1.300e-07 w=1.200e-06
.ENDS

** Created by: circuit_gen.AO21D2
** Cell name: AO21D2
** Lib name: sg13g2f
.SUBCKT sg13g2f_AO21D2 a1 a2 b vdd vss z
*.PININFO a1:I a2:I b:I z:O vdd:B vss:B 
XMI7 net32 a2 vss vss sg13_lv_nmos l=1.300e-07 w=7.200e-07
XM_u7 net59 a1 net32 vss sg13_lv_nmos l=1.300e-07 w=7.200e-07
XMI6 net59 b vss vss sg13_lv_nmos l=1.300e-07 w=7.200e-07
XMI8_0_M_u2 z net59 vss vss sg13_lv_nmos l=1.300e-07 w=7.200e-07
XMI8_1_M_u2 z net59 vss vss sg13_lv_nmos l=1.300e-07 w=7.200e-07
XM_u3 net22 a1 net59 vdd sg13_lv_pmos l=1.300e-07 w=1.200e-06
XMI8_0_M_u3 z net59 vdd vdd sg13_lv_pmos l=1.300e-07 w=1.200e-06
XMI8_1_M_u3 z net59 vdd vdd sg13_lv_pmos l=1.300e-07 w=1.200e-06
XM_u4 net22 a2 net59 vdd sg13_lv_pmos l=1.300e-07 w=1.200e-06
XM_u2 net22 b vdd vdd sg13_lv_pmos l=1.300e-07 w=1.200e-06
.ENDS

** Created by: circuit_gen.AOI21D0
** Cell name: AOI21D0
** Lib name: sg13g2f
.SUBCKT sg13g2f_AOI21D0 a1 a2 b vdd vss zn
*.PININFO a1:I a2:I b:I zn:O vdd:B vss:B 
XMI2 zn a1 net27 vss sg13_lv_nmos l=1.300e-07 w=3.600e-07
XMI7 net27 a2 vss vss sg13_lv_nmos l=1.300e-07 w=3.600e-07
XMI6 zn b vss vss sg13_lv_nmos l=1.300e-07 w=3.600e-07
XMI5 zn a2 net13 vdd sg13_lv_pmos l=1.300e-07 w=6.000e-07
XM_u2 net13 b vdd vdd sg13_lv_pmos l=1.300e-07 w=6.000e-07
XMI4 zn a1 net13 vdd sg13_lv_pmos l=1.300e-07 w=6.000e-07
.ENDS

** Created by: circuit_gen.AOI21D1
** Cell name: AOI21D1
** Lib name: sg13g2f
.SUBCKT sg13g2f_AOI21D1 a1 a2 b vdd vss zn
*.PININFO a1:I a2:I b:I zn:O vdd:B vss:B 
XMI2 zn a1 net27 vss sg13_lv_nmos l=1.300e-07 w=7.200e-07
XMI3 net27 a2 vss vss sg13_lv_nmos l=1.300e-07 w=7.200e-07
XM_u7 zn b vss vss sg13_lv_nmos l=1.300e-07 w=7.200e-07
XM_u4 net13 a2 zn vdd sg13_lv_pmos l=1.300e-07 w=1.200e-06
XM_u2 net13 b vdd vdd sg13_lv_pmos l=1.300e-07 w=1.200e-06
XM_u3 net13 a1 zn vdd sg13_lv_pmos l=1.300e-07 w=1.200e-06
.ENDS

** Created by: circuit_gen.ANTENNA
** Cell name: ANTENNA
** Lib name: sg13g2f
.SUBCKT sg13g2f_ANTENNA i vdd vss
*.PININFO i:I vdd:B vss:B
Ddn_1 vss i dantenna m=1 w=1.485u l=970n a=1440.45f
DD0 i vdd dpantenna m=1 w=1.485u l=970n a=1440.45f
.ENDS

** Created by: circuit_gen.BUFFD0
** Cell name: BUFFD0
** Lib name: sg13g2f
.SUBCKT sg13g2f_BUFFD0 i vdd vss z
*.PININFO i:I z:O vdd:B vss:B 
XM_u3_M_u2 z net6 vss vss sg13_lv_nmos l=1.300e-07 w=2.500e-07
XM_u2_M_u2 net6 i vss vss sg13_lv_nmos l=1.300e-07 w=2.450e-07
XM_u3_M_u3 z net6 vdd vdd sg13_lv_pmos l=1.300e-07 w=5.850e-07
XM_u2_M_u3 net6 i vdd vdd sg13_lv_pmos l=1.300e-07 w=3.600e-07
.ENDS

** Created by: circuit_gen.BUFFD1
** Cell name: BUFFD1
** Lib name: sg13g2f
.SUBCKT sg13g2f_BUFFD1 i vdd vss z
*.PININFO i:I z:O vdd:B vss:B 
XM_u3_M_u2 z net8 vss vss sg13_lv_nmos l=1.300e-07 w=7.200e-07
XM_u2_M_u2 net8 i vss vss sg13_lv_nmos l=1.300e-07 w=3.600e-07
XM_u3_M_u3 z net8 vdd vdd sg13_lv_pmos l=1.300e-07 w=1.200e-06
XM_u2_M_u3 net8 i vdd vdd sg13_lv_pmos l=1.300e-07 w=6.000e-07
.ENDS

** Created by: circuit_gen.BUFFD2
** Cell name: BUFFD2
** Lib name: sg13g2f
.SUBCKT sg13g2f_BUFFD2 i vdd vss z
*.PININFO i:I z:O vdd:B vss:B 
XM_u2_M_u2 net8 i vss vss sg13_lv_nmos l=1.300e-07 w=7.200e-07
XM_u3_0_M_u2 z net8 vss vss sg13_lv_nmos l=1.300e-07 w=7.200e-07
XM_u3_1_M_u2 z net8 vss vss sg13_lv_nmos l=1.300e-07 w=7.200e-07
XM_u2_M_u3 net8 i vdd vdd sg13_lv_pmos l=1.300e-07 w=1.200e-06
XM_u3_0_M_u3 z net8 vdd vdd sg13_lv_pmos l=1.300e-07 w=1.200e-06
XM_u3_1_M_u3 z net8 vdd vdd sg13_lv_pmos l=1.300e-07 w=1.200e-06
.ENDS

** Created by: circuit_gen.BUFFD4
** Cell name: BUFFD4
** Lib name: sg13g2f
.SUBCKT sg13g2f_BUFFD4 i vdd vss z
*.PININFO i:I z:O vdd:B vss:B 
XM_u3_0_M_u2 z p0 vss vss sg13_lv_nmos l=1.300e-07 w=7.200e-07
XM_u3_1_M_u2 z p0 vss vss sg13_lv_nmos l=1.300e-07 w=7.200e-07
XM_u3_2_M_u2 z p0 vss vss sg13_lv_nmos l=1.300e-07 w=7.200e-07
XM_u3_3_M_u2 z p0 vss vss sg13_lv_nmos l=1.300e-07 w=7.200e-07
XM_u2_0_M_u2 p0 i vss vss sg13_lv_nmos l=1.300e-07 w=7.200e-07
XM_u2_1_M_u2 p0 i vss vss sg13_lv_nmos l=1.300e-07 w=7.200e-07
XM_u3_0_M_u3 z p0 vdd vdd sg13_lv_pmos l=1.300e-07 w=1.200e-06
XM_u3_1_M_u3 z p0 vdd vdd sg13_lv_pmos l=1.300e-07 w=1.200e-06
XM_u3_2_M_u3 z p0 vdd vdd sg13_lv_pmos l=1.300e-07 w=1.200e-06
XM_u3_3_M_u3 z p0 vdd vdd sg13_lv_pmos l=1.300e-07 w=1.200e-06
XM_u2_0_M_u3 p0 i vdd vdd sg13_lv_pmos l=1.300e-07 w=1.200e-06
XM_u2_1_M_u3 p0 i vdd vdd sg13_lv_pmos l=1.300e-07 w=1.200e-06
.ENDS

** Created by: circuit_gen.BUFFD6
** Cell name: BUFFD6
** Lib name: sg13g2f
.SUBCKT sg13g2f_BUFFD6 i vdd vss z
*.PININFO i:I z:O vdd:B vss:B 
XM_u2_M_u2_0 net8 i vss vss sg13_lv_nmos l=1.300e-07 w=7.200e-07 $pos=0 $flip=1
XM_u2_M_u2_1 net8 i vss vss sg13_lv_nmos l=1.300e-07 w=7.200e-07 $pos=1 $flip=0
XM_u3_0_M_u2 z net8 vss vss sg13_lv_nmos l=1.300e-07 w=7.200e-07 $pos=2 $flip=1
XM_u3_1_M_u2 z net8 vss vss sg13_lv_nmos l=1.300e-07 w=7.200e-07 $pos=3 $flip=0
XM_u3_2_M_u2 z net8 vss vss sg13_lv_nmos l=1.300e-07 w=7.200e-07 $pos=4 $flip=1
XM_u3_3_M_u2 z net8 vss vss sg13_lv_nmos l=1.300e-07 w=7.200e-07 $pos=5 $flip=0
XM_u3_4_M_u2 z net8 vss vss sg13_lv_nmos l=1.300e-07 w=7.200e-07 $pos=6 $flip=1
XM_u3_5_M_u2 z net8 vss vss sg13_lv_nmos l=1.300e-07 w=7.200e-07 $pos=7 $flip=0
XM_u2_M_u3_0 net8 i vdd vdd sg13_lv_pmos l=1.300e-07 w=1.200e-06 $pos=0 $flip=1
XM_u2_M_u3_1 net8 i vdd vdd sg13_lv_pmos l=1.300e-07 w=1.200e-06 $pos=1 $flip=0
XM_u3_0_M_u3 z net8 vdd vdd sg13_lv_pmos l=1.300e-07 w=1.200e-06 $pos=2 $flip=1
XM_u3_1_M_u3 z net8 vdd vdd sg13_lv_pmos l=1.300e-07 w=1.200e-06 $pos=3 $flip=0
XM_u3_2_M_u3 z net8 vdd vdd sg13_lv_pmos l=1.300e-07 w=1.200e-06 $pos=4 $flip=1
XM_u3_3_M_u3 z net8 vdd vdd sg13_lv_pmos l=1.300e-07 w=1.200e-06 $pos=5 $flip=0
XM_u3_4_M_u3 z net8 vdd vdd sg13_lv_pmos l=1.300e-07 w=1.200e-06 $pos=6 $flip=1
XM_u3_5_M_u3 z net8 vdd vdd sg13_lv_pmos l=1.300e-07 w=1.200e-06 $pos=7 $flip=0
.ENDS

** Created by: circuit_gen.BUFFD8
** Cell name: BUFFD8
** Lib name: sg13g2f
.SUBCKT sg13g2f_BUFFD8 i vdd vss z
*.PININFO i:I z:O vdd:B vss:B 
XMI1_M_u2 n0 i vss vss sg13_lv_nmos l=1.300e-07 w=7.200e-07 $pos=0 $flip=0
XMI2_M_u2 n0 i vss vss sg13_lv_nmos l=1.300e-07 w=4.850e-07 $pos=1 $flip=1
XM_u2_M_u2 n0 i vss vss sg13_lv_nmos l=1.300e-07 w=7.200e-07 $pos=2 $flip=0
XM_u7_0_M_u2 z n0 vss vss sg13_lv_nmos l=1.300e-07 w=7.200e-07 $pos=3 $flip=1
XM_u7_1_M_u2 z n0 vss vss sg13_lv_nmos l=1.300e-07 w=7.200e-07 $pos=4 $flip=0
XM_u7_2_M_u2 z n0 vss vss sg13_lv_nmos l=1.300e-07 w=7.200e-07 $pos=5 $flip=1
XM_u7_3_M_u2 z n0 vss vss sg13_lv_nmos l=1.300e-07 w=7.200e-07 $pos=6 $flip=0
XM_u7_4_M_u2 z n0 vss vss sg13_lv_nmos l=1.300e-07 w=7.200e-07 $pos=7 $flip=1
XM_u7_5_M_u2 z n0 vss vss sg13_lv_nmos l=1.300e-07 w=7.200e-07 $pos=8 $flip=0
XM_u7_6_M_u2 z n0 vss vss sg13_lv_nmos l=1.300e-07 w=7.200e-07 $pos=9 $flip=1
XM_u7_7_M_u2 z n0 vss vss sg13_lv_nmos l=1.300e-07 w=7.200e-07 $pos=10 $flip=0
XMI1_M_u3 n0 i vdd vdd sg13_lv_pmos l=1.300e-07 w=1.200e-06 $pos=0 $flip=0
XMI2_M_u3 n0 i vdd vdd sg13_lv_pmos l=1.300e-07 w=8.050e-07 $pos=1 $flip=1
XM_u2_M_u3 n0 i vdd vdd sg13_lv_pmos l=1.300e-07 w=1.200e-06 $pos=2 $flip=0
XM_u7_0_M_u3 z n0 vdd vdd sg13_lv_pmos l=1.300e-07 w=1.200e-06 $pos=3 $flip=1
XM_u7_1_M_u3 z n0 vdd vdd sg13_lv_pmos l=1.300e-07 w=1.200e-06 $pos=4 $flip=0
XM_u7_2_M_u3 z n0 vdd vdd sg13_lv_pmos l=1.300e-07 w=1.200e-06 $pos=5 $flip=1
XM_u7_3_M_u3 z n0 vdd vdd sg13_lv_pmos l=1.300e-07 w=1.200e-06 $pos=6 $flip=0
XM_u7_4_M_u3 z n0 vdd vdd sg13_lv_pmos l=1.300e-07 w=1.200e-06 $pos=7 $flip=1
XM_u7_5_M_u3 z n0 vdd vdd sg13_lv_pmos l=1.300e-07 w=1.200e-06 $pos=8 $flip=0
XM_u7_6_M_u3 z n0 vdd vdd sg13_lv_pmos l=1.300e-07 w=1.200e-06 $pos=9 $flip=1
XM_u7_7_M_u3 z n0 vdd vdd sg13_lv_pmos l=1.300e-07 w=1.200e-06 $pos=10 $flip=0
.ENDS

** Created by: circuit_gen.BUFFD12
** Cell name: BUFFD12
** Lib name: sg13g2f
.SUBCKT sg13g2f_BUFFD12 i vdd vss z
*.PININFO i:I z:O vdd:B vss:B 
XM_u2_0_M_u2 n0 i vss vss sg13_lv_nmos l=1.300e-07 w=4.300e-07 $pos=0 $flip=0
XM_u2_1_M_u2 n0 i vss vss sg13_lv_nmos l=1.300e-07 w=4.300e-07 $pos=1 $flip=1
XM_u2_2_M_u2 n0 i vss vss sg13_lv_nmos l=1.300e-07 w=4.300e-07 $pos=2 $flip=0
XM_u2_3_M_u2 n0 i vss vss sg13_lv_nmos l=1.300e-07 w=4.300e-07 $pos=3 $flip=1
XM_u2_4_M_u2 n0 i vss vss sg13_lv_nmos l=1.300e-07 w=4.300e-07 $pos=4 $flip=0
XMU8_0_M_u2 z n0 vss vss sg13_lv_nmos l=1.300e-07 w=7.200e-07 $pos=5 $flip=1
XMU8_1_M_u2 z n0 vss vss sg13_lv_nmos l=1.300e-07 w=7.200e-07 $pos=6 $flip=0
XMU8_2_M_u2 z n0 vss vss sg13_lv_nmos l=1.300e-07 w=7.200e-07 $pos=7 $flip=1
XMU8_3_M_u2 z n0 vss vss sg13_lv_nmos l=1.300e-07 w=7.200e-07 $pos=8 $flip=0
XMU8_4_M_u2 z n0 vss vss sg13_lv_nmos l=1.300e-07 w=7.200e-07 $pos=9 $flip=1
XMU8_5_M_u2 z n0 vss vss sg13_lv_nmos l=1.300e-07 w=7.200e-07 $pos=10 $flip=0
XMU8_6_M_u2 z n0 vss vss sg13_lv_nmos l=1.300e-07 w=7.200e-07 $pos=11 $flip=1
XMU8_7_M_u2 z n0 vss vss sg13_lv_nmos l=1.300e-07 w=7.200e-07 $pos=12 $flip=0
XMU8_8_M_u2 z n0 vss vss sg13_lv_nmos l=1.300e-07 w=7.200e-07 $pos=13 $flip=1
XMU8_9_M_u2 z n0 vss vss sg13_lv_nmos l=1.300e-07 w=7.200e-07 $pos=14 $flip=0
XMU8_10_M_u2 z n0 vss vss sg13_lv_nmos l=1.300e-07 w=7.200e-07 $pos=15 $flip=1
XMU8_11_M_u2 z n0 vss vss sg13_lv_nmos l=1.300e-07 w=7.200e-07 $pos=16 $flip=0
XM_u2_0_M_u3 n0 i vdd vdd sg13_lv_pmos l=1.300e-07 w=7.200e-07 $pos=0 $flip=0
XM_u2_1_M_u3 n0 i vdd vdd sg13_lv_pmos l=1.300e-07 w=7.200e-07 $pos=1 $flip=1
XM_u2_2_M_u3 n0 i vdd vdd sg13_lv_pmos l=1.300e-07 w=7.200e-07 $pos=2 $flip=0
XM_u2_3_M_u3 n0 i vdd vdd sg13_lv_pmos l=1.300e-07 w=7.200e-07 $pos=3 $flip=1
XM_u2_4_M_u3 n0 i vdd vdd sg13_lv_pmos l=1.300e-07 w=7.200e-07 $pos=4 $flip=0
XMU8_0_M_u3 z n0 vdd vdd sg13_lv_pmos l=1.300e-07 w=1.200e-06 $pos=5 $flip=1
XMU8_1_M_u3 z n0 vdd vdd sg13_lv_pmos l=1.300e-07 w=1.200e-06 $pos=6 $flip=0
XMU8_2_M_u3 z n0 vdd vdd sg13_lv_pmos l=1.300e-07 w=1.200e-06 $pos=7 $flip=1
XMU8_3_M_u3 z n0 vdd vdd sg13_lv_pmos l=1.300e-07 w=1.200e-06 $pos=8 $flip=0
XMU8_4_M_u3 z n0 vdd vdd sg13_lv_pmos l=1.300e-07 w=1.200e-06 $pos=9 $flip=1
XMU8_5_M_u3 z n0 vdd vdd sg13_lv_pmos l=1.300e-07 w=1.200e-06 $pos=10 $flip=0
XMU8_6_M_u3 z n0 vdd vdd sg13_lv_pmos l=1.300e-07 w=1.200e-06 $pos=11 $flip=1
XMU8_7_M_u3 z n0 vdd vdd sg13_lv_pmos l=1.300e-07 w=1.200e-06 $pos=12 $flip=0
XMU8_8_M_u3 z n0 vdd vdd sg13_lv_pmos l=1.300e-07 w=1.200e-06 $pos=13 $flip=1
XMU8_9_M_u3 z n0 vdd vdd sg13_lv_pmos l=1.300e-07 w=1.200e-06 $pos=14 $flip=0
XMU8_10_M_u3 z n0 vdd vdd sg13_lv_pmos l=1.300e-07 w=1.200e-06 $pos=15 $flip=1
XMU8_11_M_u3 z n0 vdd vdd sg13_lv_pmos l=1.300e-07 w=1.200e-06 $pos=16 $flip=0
.ENDS

** Created by: circuit_gen.BUFFD16
** Cell name: BUFFD16
** Lib name: sg13g2f
.SUBCKT sg13g2f_BUFFD16 i vdd vss z
*.PININFO i:I z:O vdd:B vss:B 
XMI6_M_u2 n0 i vss vss sg13_lv_nmos l=1.300e-07 w=2.500e-07 $pos=0 $flip=1
XM_u2_0_M_u2 n0 i vss vss sg13_lv_nmos l=1.300e-07 w=7.200e-07 $pos=1 $flip=0
XM_u2_1_M_u2 n0 i vss vss sg13_lv_nmos l=1.300e-07 w=7.200e-07 $pos=2 $flip=1
XM_u2_2_M_u2 n0 i vss vss sg13_lv_nmos l=1.300e-07 w=7.200e-07 $pos=3 $flip=0
XM_u2_3_M_u2 n0 i vss vss sg13_lv_nmos l=1.300e-07 w=7.200e-07 $pos=4 $flip=1
XM_u2_4_M_u2 n0 i vss vss sg13_lv_nmos l=1.300e-07 w=7.200e-07 $pos=5 $flip=0
XMU8_0_M_u2 z n0 vss vss sg13_lv_nmos l=1.300e-07 w=7.200e-07 $pos=6 $flip=1
XMU8_1_M_u2 z n0 vss vss sg13_lv_nmos l=1.300e-07 w=7.200e-07 $pos=7 $flip=0
XMU8_2_M_u2 z n0 vss vss sg13_lv_nmos l=1.300e-07 w=7.200e-07 $pos=8 $flip=1
XMU8_3_M_u2 z n0 vss vss sg13_lv_nmos l=1.300e-07 w=7.200e-07 $pos=9 $flip=0
XMU8_4_M_u2 z n0 vss vss sg13_lv_nmos l=1.300e-07 w=7.200e-07 $pos=10 $flip=1
XMU8_5_M_u2 z n0 vss vss sg13_lv_nmos l=1.300e-07 w=7.200e-07 $pos=11 $flip=0
XMU8_6_M_u2 z n0 vss vss sg13_lv_nmos l=1.300e-07 w=7.200e-07 $pos=12 $flip=1
XMU8_7_M_u2 z n0 vss vss sg13_lv_nmos l=1.300e-07 w=7.200e-07 $pos=13 $flip=0
XMU8_8_M_u2 z n0 vss vss sg13_lv_nmos l=1.300e-07 w=7.200e-07 $pos=14 $flip=1
XMU8_9_M_u2 z n0 vss vss sg13_lv_nmos l=1.300e-07 w=7.200e-07 $pos=15 $flip=0
XMU8_10_M_u2 z n0 vss vss sg13_lv_nmos l=1.300e-07 w=7.200e-07 $pos=16 $flip=1
XMU8_11_M_u2 z n0 vss vss sg13_lv_nmos l=1.300e-07 w=7.200e-07 $pos=17 $flip=0
XMU8_12_M_u2 z n0 vss vss sg13_lv_nmos l=1.300e-07 w=7.200e-07 $pos=18 $flip=1
XMU8_13_M_u2 z n0 vss vss sg13_lv_nmos l=1.300e-07 w=7.200e-07 $pos=19 $flip=0
XMU8_14_M_u2 z n0 vss vss sg13_lv_nmos l=1.300e-07 w=7.200e-07 $pos=20 $flip=1
XMU8_15_M_u2 z n0 vss vss sg13_lv_nmos l=1.300e-07 w=7.200e-07 $pos=21 $flip=0
XMI6_M_u3 n0 i vdd vdd sg13_lv_pmos l=1.300e-07 w=3.950e-07 $pos=0 $flip=1
XM_u2_0_M_u3 n0 i vdd vdd sg13_lv_pmos l=1.300e-07 w=1.200e-06 $pos=1 $flip=0
XM_u2_1_M_u3 n0 i vdd vdd sg13_lv_pmos l=1.300e-07 w=1.200e-06 $pos=2 $flip=1
XM_u2_2_M_u3 n0 i vdd vdd sg13_lv_pmos l=1.300e-07 w=1.200e-06 $pos=3 $flip=0
XM_u2_3_M_u3 n0 i vdd vdd sg13_lv_pmos l=1.300e-07 w=1.200e-06 $pos=4 $flip=1
XM_u2_4_M_u3 n0 i vdd vdd sg13_lv_pmos l=1.300e-07 w=1.200e-06 $pos=5 $flip=0
XMU8_0_M_u3 z n0 vdd vdd sg13_lv_pmos l=1.300e-07 w=1.200e-06 $pos=6 $flip=1
XMU8_1_M_u3 z n0 vdd vdd sg13_lv_pmos l=1.300e-07 w=1.200e-06 $pos=7 $flip=0
XMU8_2_M_u3 z n0 vdd vdd sg13_lv_pmos l=1.300e-07 w=1.200e-06 $pos=8 $flip=1
XMU8_3_M_u3 z n0 vdd vdd sg13_lv_pmos l=1.300e-07 w=1.200e-06 $pos=9 $flip=0
XMU8_4_M_u3 z n0 vdd vdd sg13_lv_pmos l=1.300e-07 w=1.200e-06 $pos=10 $flip=1
XMU8_5_M_u3 z n0 vdd vdd sg13_lv_pmos l=1.300e-07 w=1.200e-06 $pos=11 $flip=0
XMU8_6_M_u3 z n0 vdd vdd sg13_lv_pmos l=1.300e-07 w=1.200e-06 $pos=12 $flip=1
XMU8_7_M_u3 z n0 vdd vdd sg13_lv_pmos l=1.300e-07 w=1.200e-06 $pos=13 $flip=0
XMU8_8_M_u3 z n0 vdd vdd sg13_lv_pmos l=1.300e-07 w=1.200e-06 $pos=14 $flip=1
XMU8_9_M_u3 z n0 vdd vdd sg13_lv_pmos l=1.300e-07 w=1.200e-06 $pos=15 $flip=0
XMU8_10_M_u3 z n0 vdd vdd sg13_lv_pmos l=1.300e-07 w=1.200e-06 $pos=16 $flip=1
XMU8_11_M_u3 z n0 vdd vdd sg13_lv_pmos l=1.300e-07 w=1.200e-06 $pos=17 $flip=0
XMU8_12_M_u3 z n0 vdd vdd sg13_lv_pmos l=1.300e-07 w=1.200e-06 $pos=18 $flip=1
XMU8_13_M_u3 z n0 vdd vdd sg13_lv_pmos l=1.300e-07 w=1.200e-06 $pos=19 $flip=0
XMU8_14_M_u3 z n0 vdd vdd sg13_lv_pmos l=1.300e-07 w=1.200e-06 $pos=20 $flip=1
XMU8_15_M_u3 z n0 vdd vdd sg13_lv_pmos l=1.300e-07 w=1.200e-06 $pos=21 $flip=0
.ENDS

** Created by: circuit_gen.DEL0
** Cell name: DEL0
** Lib name: sg13g2f
.SUBCKT sg13g2f_DEL0 i vdd vss z
*.PININFO i:I z:O vdd:B vss:B 
XMI2_M_u2 z net3 vss vss sg13_lv_nmos l=1.300e-07 w=7.200e-07
XMU7_M_u2 net3 net5 vss vss sg13_lv_nmos l=1.300e-07 w=7.200e-07
XMU5_M_u2 net5 net9 vss vss sg13_lv_nmos l=1.300e-07 w=4.800e-07
XMI1_M_u2 net9 i vss vss sg13_lv_nmos l=1.300e-07 w=7.200e-07
XMI2_M_u3 z net3 vdd vdd sg13_lv_pmos l=1.300e-07 w=1.200e-06
XMU7_M_u3 net3 net5 vdd vdd sg13_lv_pmos l=1.300e-07 w=1.040e-06
XMU5_M_u3 net5 net9 vdd vdd sg13_lv_pmos l=1.300e-07 w=1.200e-06
XMI1_M_u3 net9 i vdd vdd sg13_lv_pmos l=1.300e-07 w=1.200e-06
.ENDS

** Created by: circuit_gen.DEL2
** Cell name: DEL2
** Lib name: sg13g2f
.SUBCKT sg13g2f_DEL2 i vdd vss z
*.PININFO i:I z:O vdd:B vss:B 
XMI2_M_u2 z net3 vss vss sg13_lv_nmos l=1.300e-07 w=7.200e-07
XMU7_M_u2 net3 net5 vss vss sg13_lv_nmos l=1.300e-07 w=7.200e-07
XMU5_M_u2 net5 net9 vss vss sg13_lv_nmos l=1.300e-07 w=4.800e-07
XMI1_M_u2 net9 i vss vss sg13_lv_nmos l=1.300e-07 w=7.200e-07
XMI2_M_u3 z net3 vdd vdd sg13_lv_pmos l=1.300e-07 w=1.200e-06
XMU7_M_u3 net3 net5 vdd vdd sg13_lv_pmos l=1.300e-07 w=9.000e-07
XMU5_M_u3 net5 net9 vdd vdd sg13_lv_pmos l=1.300e-07 w=1.200e-06
XMI1_M_u3 net9 i vdd vdd sg13_lv_pmos l=1.300e-07 w=1.200e-06
.ENDS

** Created by: circuit_gen.DEL02
** Cell name: DEL02
** Lib name: sg13g2f
.SUBCKT sg13g2f_DEL02 i vdd vss z
*.PININFO i:I z:O vdd:B vss:B 
XMI17 net3 net21 net27 vss sg13_lv_nmos l=1.300e-07 w=3.350e-07
XMI18 net27 net21 vss vss sg13_lv_nmos l=1.300e-07 w=3.350e-07
XMI5 net21 net9 net24 vss sg13_lv_nmos l=1.300e-07 w=3.350e-07
XMI16 net24 net9 vss vss sg13_lv_nmos l=1.300e-07 w=3.350e-07
XMI2_M_u2 z net3 vss vss sg13_lv_nmos l=1.300e-07 w=7.200e-07
XMI1_M_u2 net9 i vss vss sg13_lv_nmos l=1.300e-07 w=7.200e-07
XMI15 net27 net21 net3 vdd sg13_lv_pmos l=1.300e-07 w=5.650e-07
XMI13 net24 net9 net21 vdd sg13_lv_pmos l=1.300e-07 w=5.650e-07
XMI3 vdd net9 net24 vdd sg13_lv_pmos l=1.300e-07 w=5.650e-07
XMI14 vdd net21 net27 vdd sg13_lv_pmos l=1.300e-07 w=5.650e-07
XMI2_M_u3 z net3 vdd vdd sg13_lv_pmos l=1.300e-07 w=1.200e-06
XMI1_M_u3 net9 i vdd vdd sg13_lv_pmos l=1.300e-07 w=1.200e-06
.ENDS

** Created by: circuit_gen.DEL4
** Cell name: DEL4
** Lib name: sg13g2f
.SUBCKT sg13g2f_DEL4 i vdd vss z
*.PININFO i:I z:O vdd:B vss:B 
XMI2_M_u2 z net13 vss vss sg13_lv_nmos l=1.300e-07 w=7.200e-07
XMU7_M_u2 net13 net11 vss vss sg13_lv_nmos l=1.300e-07 w=7.200e-07
XMU5_M_u2 net11 net9 vss vss sg13_lv_nmos l=1.300e-07 w=4.800e-07
XMI1_M_u2 net9 i vss vss sg13_lv_nmos l=1.300e-07 w=7.200e-07
XMI2_M_u3 z net13 vdd vdd sg13_lv_pmos l=1.300e-07 w=1.200e-06
XMU7_M_u3 net13 net11 vdd vdd sg13_lv_pmos l=1.300e-07 w=8.500e-07
XMU5_M_u3 net11 net9 vdd vdd sg13_lv_pmos l=1.300e-07 w=1.200e-06
XMI1_M_u3 net9 i vdd vdd sg13_lv_pmos l=1.300e-07 w=1.200e-06
.ENDS

** Created by: circuit_gen.DEL005
** Cell name: DEL005
** Lib name: sg13g2f
.SUBCKT sg13g2f_DEL005 i vdd vss z
*.PININFO i:I z:O vdd:B vss:B 
XMI12 net3 i net22 vss sg13_lv_nmos l=1.300e-07 w=4.250e-07
XMI13 net22 i vss vss sg13_lv_nmos l=1.300e-07 w=4.250e-07
XMI2_M_u2 z net3 vss vss sg13_lv_nmos l=1.300e-07 w=7.200e-07
XMI10 net3 i net21 vdd sg13_lv_pmos l=1.300e-07 w=1.200e-06
XMI3 net21 i vdd vdd sg13_lv_pmos l=1.300e-07 w=1.200e-06
XMI2_M_u3 z net3 vdd vdd sg13_lv_pmos l=1.300e-07 w=1.200e-06
.ENDS

** Created by: circuit_gen.DEL015
** Cell name: DEL015
** Lib name: sg13g2f
.SUBCKT sg13g2f_DEL015 i vdd vss z
*.PININFO i:I z:O vdd:B vss:B 
XMI11 net27 net21 vss vss sg13_lv_nmos l=1.300e-07 w=7.200e-07
XMI10 net3 net21 net27 vss sg13_lv_nmos l=1.300e-07 w=7.200e-07
XMI5 net21 net9 net24 vss sg13_lv_nmos l=1.300e-07 w=7.200e-07
XMI111 net24 net9 vss vss sg13_lv_nmos l=1.300e-07 w=7.200e-07
XMI2_M_u2 z net3 vss vss sg13_lv_nmos l=1.300e-07 w=7.200e-07
XMI1_M_u2 net9 i vss vss sg13_lv_nmos l=1.300e-07 w=7.200e-07
XMI8 net27 net21 net3 vdd sg13_lv_pmos l=1.300e-07 w=1.200e-06
XMI9 vdd net21 net27 vdd sg13_lv_pmos l=1.300e-07 w=1.200e-06
XMI4 net24 net9 net21 vdd sg13_lv_pmos l=1.300e-07 w=1.200e-06
XMI3 vdd net9 net24 vdd sg13_lv_pmos l=1.300e-07 w=1.200e-06
XMI2_M_u3 z net3 vdd vdd sg13_lv_pmos l=1.300e-07 w=1.200e-06
XMI1_M_u3 net9 i vdd vdd sg13_lv_pmos l=1.300e-07 w=1.200e-06
.ENDS

** Created by: circuit_gen.DFCNQD1
** Cell name: DFCNQD1
** Lib name: sg13g2
.SUBCKT sg13g2f_DFCNQD1 cdn cp d q vdd vss
*.PININFO cdn:I cp:I d:I q:O vdd:B vss:B 
XMcpbn incpb cp vss vss sg13_lv_nmos l=1.300e-07 w=3.500e-07 $pos=0 $flip=0
XMcpbp incpb cp vdd vdd sg13_lv_pmos l=1.300e-07 w=5.500e-07 $pos=0 $flip=0
XMcpn incp incpb vss vss sg13_lv_nmos l=1.300e-07 w=3.500e-07 $pos=1 $flip=1
XMcpp incp incpb vdd vdd sg13_lv_pmos l=1.300e-07 w=5.500e-07 $pos=1 $flip=1
XMI4 net52 incpb vss vss sg13_lv_nmos l=1.300e-07 w=3.500e-07 $pos=3 $flip=1
XMI7 net85 incp vdd vdd sg13_lv_pmos l=1.300e-07 w=8.100e-07 $pos=3 $flip=1
XMdd0n d0 d net52 vss sg13_lv_nmos l=1.300e-07 w=3.500e-07 $pos=4 $flip=1
XMdd0p d0 d net85 vdd sg13_lv_pmos l=1.300e-07 w=8.100e-07 $pos=4 $flip=1
XMI47 d0 incp net59 vss sg13_lv_nmos l=1.300e-07 w=2.450e-07 $pos=5 $flip=0
XMI45 d0 incpb net98 vdd sg13_lv_pmos l=1.300e-07 w=3.300e-07 $pos=5 $flip=0
XMI48 net59 d1 net62 vss sg13_lv_nmos l=1.300e-07 w=2.450e-07 $pos=6 $flip=0
XMI43 net98 d1 vdd vdd sg13_lv_pmos l=1.300e-07 w=3.050e-07 $pos=6 $flip=0
XMcdn0n net62 cdn vss vss sg13_lv_nmos l=1.300e-07 w=2.450e-07 $pos=7 $flip=0
XMd0d1n d1 d0 vss vss sg13_lv_nmos l=1.300e-07 w=4.300e-07 $pos=8 $flip=1
XMcdn0p net98 cdn vdd vdd sg13_lv_pmos l=1.300e-07 w=2.750e-07 $pos=8 $flip=0
XMswd1d2n d1 incp d2 vss sg13_lv_nmos l=1.300e-07 w=4.900e-07 $pos=9 $flip=0
XMdod1p d1 d0 vdd vdd sg13_lv_pmos l=1.300e-07 w=7.150e-07 $pos=9 $flip=1
XMI23 d2 incpb net57 vss sg13_lv_nmos l=1.300e-07 w=2.450e-07 $pos=10 $flip=0
XMswd1d2p d1 incpb d2 vdd sg13_lv_pmos l=1.300e-07 w=1.030e-06 $pos=10 $flip=0
XMI26 d2 incp net88 vdd sg13_lv_pmos l=1.300e-07 w=2.750e-07 $pos=11 $flip=0
XMI24 net57 d3 vss vss sg13_lv_nmos l=1.300e-07 w=2.450e-07 $pos=12 $flip=0
XMI28 net88 d3 vdd vdd sg13_lv_pmos l=1.300e-07 w=2.750e-07 $pos=12 $flip=0
XMcdn1n net37 cdn vss vss sg13_lv_nmos l=1.300e-07 w=7.000e-07 $pos=13 $flip=1
XMcdn1p d3 cdn vdd vdd sg13_lv_pmos l=1.300e-07 w=9.900e-07 $pos=13 $flip=1
XMd2d3n d3 d2 net37 vss sg13_lv_nmos l=1.300e-07 w=7.000e-07 $pos=14 $flip=1
XMd2d3p d3 d2 vdd vdd sg13_lv_pmos l=1.300e-07 w=9.900e-07 $pos=14 $flip=0
XMobp q d3 vdd vdd sg13_lv_pmos l=1.300e-07 w=1.100e-06 $pos=15 $flip=1
XMobn q d3 vss vss sg13_lv_nmos l=1.300e-07 w=7.000e-07 $pos=16 $flip=1
.ENDS

** Created by: circuit_gen.DFQD1
** Cell name: DFQD1
** Lib name: sg13g2f
.SUBCKT sg13g2f_DFQD1 cp d q vdd vss
*.PININFO cp:I d:I q:O vdd:B vss:B 
XMI4 net43 incpb vss vss sg13_lv_nmos l=1.300e-07 w=4.200e-07
XMI23 d2 incpb net42 vss sg13_lv_nmos l=1.300e-07 w=2.500e-07
XMI5 d0 d net43 vss sg13_lv_nmos l=1.300e-07 w=4.200e-07
XMI47 d0 incp net50 vss sg13_lv_nmos l=1.300e-07 w=2.500e-07
XMI48 net50 d1 vss vss sg13_lv_nmos l=1.300e-07 w=2.500e-07
XMI24 net42 d3 vss vss sg13_lv_nmos l=1.300e-07 w=2.500e-07
XMI50 d1 incp d2 vss sg13_lv_nmos l=1.300e-07 w=3.850e-07
XMI32_M_u2 incp incpb vss vss sg13_lv_nmos l=1.300e-07 w=7.200e-07
XMI31_M_u2 incpb cp vss vss sg13_lv_nmos l=1.300e-07 w=7.200e-07
XMI27_M_u2 q d3 vss vss sg13_lv_nmos l=1.300e-07 w=7.200e-07
XMI53_M_u2 d3 d2 vss vss sg13_lv_nmos l=1.300e-07 w=7.200e-07
XMI13_M_u2 d1 d0 vss vss sg13_lv_nmos l=1.300e-07 w=4.700e-07
XMI6 d0 d net66 vdd sg13_lv_pmos l=1.300e-07 w=7.500e-07
XMI32_M_u3 incp incpb vdd vdd sg13_lv_pmos l=1.300e-07 w=1.200e-06
XMI31_M_u3 incpb cp vdd vdd sg13_lv_pmos l=1.300e-07 w=1.200e-06
XMI27_M_u3 q d3 vdd vdd sg13_lv_pmos l=1.300e-07 w=1.200e-06
XMI53_M_u3 d3 d2 vdd vdd sg13_lv_pmos l=1.300e-07 w=1.200e-06
XMI13_M_u3 d1 d0 vdd vdd sg13_lv_pmos l=1.300e-07 w=7.500e-07
XMI7 net66 incp vdd vdd sg13_lv_pmos l=1.300e-07 w=8.850e-07
XMI52 d1 incpb d2 vdd sg13_lv_pmos l=1.300e-07 w=1.065e-06
XMI28 net74 d3 vdd vdd sg13_lv_pmos l=1.300e-07 w=3.000e-07
XMI26 d2 incp net74 vdd sg13_lv_pmos l=1.300e-07 w=3.000e-07
XMI45 d0 incpb net84 vdd sg13_lv_pmos l=1.300e-07 w=3.000e-07
XMI43 net84 d1 vdd vdd sg13_lv_pmos l=1.300e-07 w=3.000e-07
.ENDS

** Created by: circuit_gen.FILL1
** Cell name: FILL1
** Lib name: sg13g2f
.SUBCKT sg13g2f_FILL1 vdd vss
*.PININFO vdd:B vss:B 
.ENDS

** Created by: circuit_gen.FILL2
** Cell name: FILL2
** Lib name: sg13g2f
.SUBCKT sg13g2f_FILL2 vdd vss
*.PININFO vdd:B vss:B 
.ENDS

** Created by: circuit_gen.FILL4
** Cell name: FILL4
** Lib name: sg13g2f
.SUBCKT sg13g2f_FILL4 vdd vss
*.PININFO vdd:B vss:B 
.ENDS

** Created by: circuit_gen.FILL8
** Cell name: FILL8
** Lib name: sg13g2f
.SUBCKT sg13g2f_FILL8 vdd vss
*.PININFO vdd:B vss:B 
.ENDS

** Created by: circuit_gen.INVD0
** Cell name: INVD0
** Lib name: sg13g2f
.SUBCKT sg13g2f_INVD0 i vdd vss zn
*.PININFO i:I zn:O vdd:B vss:B 
XMU1_M_u2 zn i vss vss sg13_lv_nmos l=1.300e-07 w=3.600e-07
XMU1_M_u3 zn i vdd vdd sg13_lv_pmos l=1.300e-07 w=6.000e-07
.ENDS

** Created by: circuit_gen.INVD1
** Cell name: INVD1
** Lib name: sg13g2f
.SUBCKT sg13g2f_INVD1 i z vss vdd
*.PININFO i:I z:O vss:B vdd:B
XM0 z i vss vss sg13_lv_nmos l=1.300e-07 w=7.200e-07
XM1 z i vdd vdd sg13_lv_pmos l=1.300e-07 w=1.200e-06
.ENDS

** Created by: circuit_gen.INVD2
** Cell name: INVD2
** Lib name: sg13g2f
.SUBCKT sg13g2f_INVD2 i vdd vss zn
*.PININFO i:I zn:O vdd:B vss:B 
XMU1_M_u2_0 zn i vss vss sg13_lv_nmos l=1.300e-07 w=7.200e-07
XMU1_M_u2_1 zn i vss vss sg13_lv_nmos l=1.300e-07 w=7.200e-07
XMU1_M_u3_0 zn i vdd vdd sg13_lv_pmos l=1.300e-07 w=1.200e-06
XMU1_M_u3_1 zn i vdd vdd sg13_lv_pmos l=1.300e-07 w=1.200e-06
.ENDS

** Created by: circuit_gen.INVD4
** Cell name: INVD4
** Lib name: sg13g2f
.SUBCKT sg13g2f_INVD4 i vdd vss zn
*.PININFO i:I zn:O vdd:B vss:B 
XMU1_M_u2_0 zn i vss vss sg13_lv_nmos l=1.300e-07 w=7.200e-07
XMU1_M_u2_1 zn i vss vss sg13_lv_nmos l=1.300e-07 w=7.200e-07
XMU1_M_u2_2 zn i vss vss sg13_lv_nmos l=1.300e-07 w=7.200e-07
XMU1_M_u2_3 zn i vss vss sg13_lv_nmos l=1.300e-07 w=7.200e-07
XMU1_M_u3_0 zn i vdd vdd sg13_lv_pmos l=1.300e-07 w=1.200e-06
XMU1_M_u3_1 zn i vdd vdd sg13_lv_pmos l=1.300e-07 w=1.200e-06
XMU1_M_u3_2 zn i vdd vdd sg13_lv_pmos l=1.300e-07 w=1.200e-06
XMU1_M_u3_3 zn i vdd vdd sg13_lv_pmos l=1.300e-07 w=1.200e-06
.ENDS

** Created by: circuit_gen.INVD6
** Cell name: INVD6
** Lib name: sg13g2f
.SUBCKT sg13g2f_INVD6 i vdd vss zn
*.PININFO i:I zn:O vdd:B vss:B 
XMU1_M_u2_0 zn i vss vss sg13_lv_nmos l=1.300e-07 w=7.200e-07 $pos=0 $flip=0
XMU1_M_u2_1 zn i vss vss sg13_lv_nmos l=1.300e-07 w=7.200e-07 $pos=1 $flip=1
XMU1_M_u2_2 zn i vss vss sg13_lv_nmos l=1.300e-07 w=7.200e-07 $pos=2 $flip=0
XMU1_M_u2_3 zn i vss vss sg13_lv_nmos l=1.300e-07 w=7.200e-07 $pos=3 $flip=1
XMU1_M_u2_4 zn i vss vss sg13_lv_nmos l=1.300e-07 w=7.200e-07 $pos=4 $flip=0
XMU1_M_u2_5 zn i vss vss sg13_lv_nmos l=1.300e-07 w=7.200e-07 $pos=5 $flip=1
XMU1_M_u3_0 zn i vdd vdd sg13_lv_pmos l=1.300e-07 w=1.200e-06 $pos=0 $flip=0
XMU1_M_u3_1 zn i vdd vdd sg13_lv_pmos l=1.300e-07 w=1.200e-06 $pos=1 $flip=1
XMU1_M_u3_2 zn i vdd vdd sg13_lv_pmos l=1.300e-07 w=1.200e-06 $pos=2 $flip=0
XMU1_M_u3_3 zn i vdd vdd sg13_lv_pmos l=1.300e-07 w=1.200e-06 $pos=3 $flip=1
XMU1_M_u3_4 zn i vdd vdd sg13_lv_pmos l=1.300e-07 w=1.200e-06 $pos=4 $flip=0
XMU1_M_u3_5 zn i vdd vdd sg13_lv_pmos l=1.300e-07 w=1.200e-06 $pos=5 $flip=1
.ENDS

** Created by: circuit_gen.INVD8
** Cell name: INVD8
** Lib name: sg13g2f
.SUBCKT sg13g2f_INVD8 i vdd vss zn
*.PININFO i:I zn:O vdd:B vss:B 
XMU1_M_u2_0 zn i vss vss sg13_lv_nmos l=1.300e-07 w=7.200e-07 $pos=0 $flip=0
XMU1_M_u2_1 zn i vss vss sg13_lv_nmos l=1.300e-07 w=7.200e-07 $pos=1 $flip=1