* Extracted by KLayout with SG13G2 LVS runset on : 12/09/2025 21:18

.SUBCKT asicone_202508 AVDD|anode|cathode|pad|vdd
+ anode|cathode|pad|pad_adc_rst_pad anode|cathode|pad|pad_adc_clk_pad
+ anode|cathode|pad|pad_adc_result_0_pad anode|cathode|pad|pad_adc_result_1_pad
+ anode|cathode|pad|pad_adc_result_2_pad anode|cathode|pad|pad_adc_result_3_pad
+ anode|cathode|pad|pad_adc_result_4_pad anode|cathode|pad|pad_adc_valid_pad
+ anode|cathode|pad|pad_adc_sample_pad
+ VDDIO|cathode|guard|iovdd|pad|pin1|supply VSSIO|anode|cathode|guard|iovss
+ gate|ngate|o gate|ngate|o$1 gate|ngate|o$2 gate|ngate|o$3 gate|ngate|o$4
+ gate|ngate|o$5 gate|ngate|o$6 gate|o|pgate gate|o|pgate$1 gate|o|pgate$2
+ gate|o|pgate$3 gate|o|pgate$4 gate|o|pgate$5 gate|o|pgate$6 core|padres core
+ core$1 VDD|pad|pin1|supply|vdd RESULT[0]|c2p|core|i|q RESULT[1]|c2p|core|i|q
+ RESULT[2]|c2p|core|i|q RESULT[3]|c2p|core|i|q RESULT[4]|c2p|core|i|q
+ VALID|a3|c2p|core|i|z SAMPLE|a1|c2p|core|i|z VSS|anode|cathode|clk|vss
+ CLK|core|i|p2c anode|cathode|pad|pad_adc_go_pad i|z z zn z$1 z$2 i|z$1 z$3
+ z$4 i|z$2 z$5 GO|a2|core|p2c core$2 d|zn a2|zn a1|z b|zn z$6 zn$1 a1|z$1 d|z
+ b|zn$1 a1|z$2 a1|b|i|q a1|z$3 a2|z a2|a3|zn a1|b|i|q$1 a1|a2|a3|z d|zn$1
+ a2|zn$1 a1|z$4 d|z$1 cp|z a2 VIP|core|padres z$7 VIN|core|padres cp|z$1
+ anode|cathode|pad|pad_adc_vrefp_pad d|zn$2 VREFH|core|padres a2$1 z$8 z$9
+ a2|z$1 z$10 d|z$2 a2|z$2 a2|zn$2 a1|z$5 d|zn$3 b|zn$2 a1|z$6 a1|z$7
+ a1|b|i|q$2 d|zn$4 a1|z$8 d|zn$5 a1|z$9 a2|d|zn a2|zn$3 i|z$3 z$11 z$12 b|q
+ z$13 a2|i|q z$14 z$15 z$16 zn$2 d|z$3 z$17 z$18 z$19 a2|zn$4 z$20 d|zn$6
+ i|z$4 a1|b|i|q$3 a2|a3|z a1|z$10 b|zn$3 a2|z$3 a2|zn$5 in|pin2 a1|i|q
+ gate|out anode|cathode|pad|pad_adc_vrefn_pad i|zn i|z$5 i|z$6 i|z|zn i|z$7
+ z$21 i|z$8 cp|z$2 i|z$9 d|zn$7 i|z$10 i|z$11 i|z|zn$1 i|z$12 i|zn$1 i|z$13
+ i|z|zn$2 d|zn$8 i|z$14 i|z$15 VREFL|core|padres i|zn$2 i|z$16 i|z$17 i|z$18
+ i|z|zn$3 i|z$19 i|z$20 i|z$21 i|z$22 i|z|zn$4 i|z$23 a1|i|z|zn i|zn$3
+ i|z|zn$5 i|z$24 i|z|zn$6 i|z$25 i|z$26 i|z$27 i|z$28 i|z$29 i|zn$4 i|z$30
+ i|z$31 i|zn$5 i|z$32 a2|z$4 i|z$33 i|z$34 i|z$35 i|z$36 a1|z$11 i|zn$6 i|zn$7
+ i|z$37 i|z|zn$7 i|z$38 i|z|zn$8 i|z$39 i|z$40 i|z$41 a2|z$5 i|z$42 i|z$43
+ i|z$44 i|z$45 i|z$46 i|z$47 i|z$48 i|z$49 a1|i|q$1 i|z$50 i|z$51 a2|i|z
+ i|z$52 i|z$53 i|z$54 i|z$55 a1|c|i|zn z$22 z$23 i|z$56 i|zn$8 i|z$57 i|z$58
+ i|zn$9 i|zn$10 i|z$59 i|z$60 i|z$61 i|z$62 a2|b|z i|z$63 i|z$64 i|z$65 z$24
+ a1|c|i|zn$1 i|z$66 z$25 i|z$67 i|z$68 i|zn$11 i|z$69 i|z$70 i|z$71 i|z|zn$9
+ i|z$72 i|z$73 i|z$74 i|z$75 i|z$76 i|z$77 b|i|q i|z$78 i|z$79 b|i|q$1 i|z$80
+ i|z$81 i|z$82 i|z$83 i|z$84 i|z$85 i|z$86 a1|z$12 i|z$87 i|z$88 i|z$89 i|z$90
+ i|z$91 i|zn$12 i|z$92 i|z$93 i|z$94 i|z$95 b|i|q$2 i|z$96 i|z$97 i|zn$13
+ i|z$98 i|z$99 b|zn$4 cp|i|z zn$3 i|z$100 i|z$101 i|z$102 b|i|q$3 i|z$103
+ i|z$104 i|z$105 i|z$106 i|z$107 i|z$108 i|z$109 i|z$110 a2|zn$6 a1|z$13 zn$4
+ i|z$111 i|z$112 i|z$113 i|z$114 cp|z$3 d|zn$9 d|zn$10 a2|z$6
+ anode|cathode|pad|pad_adc_vin_pad b|zn$5 z$26 d|z$4 a2|z$7 b|zn$6 z$27 zn$5
+ gate|out$1 in|pin2$1 anode|cathode|pad|pad_adc_vip_pad
+ anode|cathode|pad|pad_miso_pad gate|o|pgate$7 DOUT_DAT|c2p|core|i|q
+ gate|ngate|o$7 s|zn s|z d|z$5 d|z$6 d|z$7 d|z$8 d|z$9 d|z$10 R[28]|i0|q
+ d|z$11 d|z$12 d|z$13 a1|a2|q a1|b|d|z d|z$14 a2|i|q$1 d|z$15 a1|a2|q$1 a2|q
+ a2|q$1 d|z$16 a1|a2|q$2 R[32]|i1|q i0|i1|q R[25]|i0|q cp|i|z$1 d|z$17 d|z$18
+ d|z$19 a3|zn R[27]|i0|q R[33]|i1|q i0|i1|q$1 a2|zn$7 d|z$20 d|z$21 d|z$22
+ a2|q$2 a1|a2|q$3 d|z$23 R[24]|i0|q R[34]|i1|q RST|a1|b|cdn|core|i|p2c
+ cp|i|z$2 d|z$24 a1|a2|q$4 a2|q$3 cp|i|z$3 R[26]|i0|q cp|i|z$4 d|z$25 d|z$26
+ d|z$27 d|z$28 a4|zn s|zn$1 z$28 d|z$29 a1|a2|q$5 a2|zn$8 a1|zn d|z$30 d|z$31
+ d|z$32 d|z$33 i0|i1|q$2 i|z$115 d|z$34 d|z$35 a2|zn$9 a2|q$4 a2|q$5
+ R[29]|i0|q R[36]|i1|q R[30]|i0|q i0|i1|q$3 a2|q$6 a2|zn$10 a1|i0|q
+ a1|i|i0|i1|q z$29 R[21]|i0|q d|z$36 z$30 R[20]|i0|q d|z$37 R[37]|i1|q
+ i0|i1|q$4 i0|i1|q$5 i0|i1|q$6 cp|z$4 d|z$38 a1|a2|q$6 a3|zn$1 a1|z$14 a4|zn$1
+ d|z$39 i0|i1|q$7 d|z$40 d|z$41 d|z$42 R[39]|i1|q d|z$43
+ anode|cathode|pad|pad_mosi_pad anode|cathode|pad|pad_RO_RST_B_pad d|s|zn z$31
+ a1|a2|q$7 d|s|z d|z$44 a2|i|s|zn a2|i|i0|i1|q R[18]|i0|q R[23]|i0|q d|z$45
+ R[53]|i1|q a1|i0|q$1 d|z$46 d|z$47 d|z$48 R[35]|i1|q d|z$49 d|z$50 a2|i|q$2
+ R[22]|i0|q d|z$51 s|zn$2 s|zn$3 a1|a2|q$8 d|z$52 a2|z$8 a1|zn$1 a1|a3|i|i1|q
+ R[50]|i1|q R[31]|i0|q R[17]|i0|q R[19]|i0|q R[38]|i1|q d|z$53 d|z$54 cp|i|z$5
+ a2|q$7 a4|zn$2 d|z$55 d|z$56 d|z$57 d|z$58 d|z$59 R[49]|i1|q d|z$60
+ R[51]|i1|q a1|a2|a4|z a1|a2|q$9 a1|a2|b|q|s R[54]|i1|q d|z$61 d|z$62
+ R[48]|i1|q R[55]|i1|q d|z$63 d|z$64 a2|zn$11 cp|i|z$6 d|z$65 a2|a3|zn$1
+ a2|z$9 R[52]|i1|q R[16]|i0|q d|z$66 d|z$67 s|z$1 s|zn$4 s|zn$5 s|zn$6 a3|zn$2
+ d|z$68 a1|zn$2 d|z$69 d|z$70 z$32 i1|z a2|zn$12 d|z$71 d|z$72 d|z$73 d|z$74
+ d|z$75 R[63]|i1|q R[47]|i0|q R[15]|i|i0|q R[12]|i|i0|q a2|a3|z$1 i0|z
+ CEB|a1|core|i|p2c R[7]|i|i0|q a1|z$15 CLK|core|i|p2c$1 cp|i|z$7 R[4]|i|i0|q
+ R[44]|i0|q i0|i1|q$8 i0|z$1 i1|z$1 d|z$76 z$33 a2|q$8 DOUT_EN|z R[43]|i0|q
+ R[46]|i0|q d|z$77 i0|i1|q$9 a2|d|z a2|z$10 d|z$78 d|z$79 R[60]|i1|q core$3
+ i0|i1|q$10 d|z$80 a2|zn$13 d|z$81 d|z$82 i1|z$2 RO_control|R[1]|i|i0|nclk|q
+ d|z$83 R[59]|i1|q DUT_Header|R[3]|Vup|i|i0|q R[14]|i|i0|q
+ R[0]|clk|i|i0|n_RO_control|q RESET_B|RSTB|core|p2c d|z$84 a2|zn$14 d|z$85
+ d|z$86 d|z$87 d|z$88 d|z$89 DATA|core|i0|i1|p2c core$4 d|z$90 i0|i1|q$11
+ i0|z$2 i0|z$3 d|z$91 R[58]|i1|q a1|zn$3 a1|zn$4 a2|zn$15 a1|zn$5 a2|z$11
+ a1|z$16 a2|zn$16 a2|zn$17 a3|zn$3 a1|z$17 a4|z d|z$92 d|z$93 d|z$94 d|z$95
+ i1|z$3 a1|i0|q$2 a2|zn$18 RD[39]|a2|z RD[28]|a2|z a2|zn$19 RD[33]|a2|z
+ RD[1]|a2|z a1|a3|z RD[29]|a2|zn RD[36]|a2|z RD[35]|a2|z R[6]|i|i0|q
+ R[40]|i0|q R[45]|i0|q R[57]|i1|q a3|zn$4 i0|i1|q$12 d|z$96 i0|z$4 R[61]|i1|q
+ a1|zn$6 a4|zn$3 a1|zn$7 a2|zn$20 a4|zn$4 a2|zn$21 i1|zn a1|zn$8 a1|zn$9
+ a4|z$1 a3|zn$5 a2|zn$22 a2|zn$23 a1|zn$10 a2|zn$24 z$34
+ DUT_Footer|R[2]|Vdn|i|i0|q R[41]|i0|q d|z$97 d|z$98 RD[7]|a2|zn i0|z$5
+ i0|i1|q$13 RD[25]|a2|zn a2|z$12 d|z$99 i1|zn$1 d|z$100 d|z$101 RD[4]|a2|z
+ RD[43]|a4|z RD[12]|a4|zn a4|zn$5 RD[19]|a4|z RD[17]|a4|z RD[23]|a4|z a2|zn$25
+ RD[9]|a4|z RD[46]|a4|z RD[38]|a2|z d|z$102 R[56]|i1|q d|z$103 R[62]|i1|q
+ i1|zn$2 a1|zn$11 a1|i1|q R[5]|i|i0|q a3|zn$6 a3|zn$7 a2|zn$26 a1|zn$12
+ a2|zn$27 a1|zn$13 a4|zn$6 a3|zn$8 R[13]|i|i0|q R[42]|i0|q d|z$104 d|z$105
+ d|z$106 RD[40]|a4|z RD[20]|a4|zn RD[16]|a4|zn RD[44]|a4|z RD[18]|a4|zn
+ a2|zn$28 a4|zn$7 RD[0]|a2|z RD[15]|a4|zn RD[22]|a4|zn RD[13]|a4|zn a4|zn$8
+ a2|z$13 RD[30]|a2|z RD[45]|a4|z d|z$107 d|z$108 DUT_Header|R[11]|Vup|i|i0|q
+ R[8]|clk|i|i0|n_RO_control|q RO_control|R[9]|i|i0|nclk|q b|z a2|zn$29
+ a1|zn$14 a2|zn$30 a1|zn$15 a3|zn$9 a2|zn$31 a1|zn$16 a2|zn$32 a1|zn$17
+ a1|zn$18 a1|zn$19 a3|zn$10 a2|zn$33 a2|zn$34 a3|zn$11 a1|zn$20 a2|zn$35
+ a1|zn$21 a1|zn$22 a1|zn$23 i0|z$6 RD[34]|a2|z RD[26]|a2|z RD[37]|a2|z
+ RD[31]|a2|zn RD[14]|a4|zn RD[32]|a2|z RD[2]|a2|z RD[10]|a4|zn RD[11]|a4|zn
+ RD[8]|a4|z RD[24]|a2|z RD[27]|a2|zn RD[21]|a4|z RD[47]|a4|z RD[3]|a2|z
+ RD[5]|a2|zn RD[6]|a2|zn Vin Vin|Vout|core|extra_load|padres
+ Drain_Sense|Vout|core|padres Drain_Force|Vout|core|padres Vout IN|Vout Vin$1
+ Vin$2 DUT_Footer|R[10]|Vdn|i|i0|q Vin|Vout D|Q_N Q D|Q_N$1 Q$1 D|Q_N$2 Q$2
+ D|Q_N$3 Q$3 D|Q_N$4 OUT|Q|c2p|core|i RO2VDD|VDD|anode|cathode|nclk|pad Vin$3
+ Vin$4 Vout$1 Vin$5 Vin$6 Vout$2 Vin$7 Vin$8 Vout$3 Vin$9 Vin$10 Vout$4 Vin$11
+ Vin$12 Vout$5 Vin$13 Vin$14 Vout$6 Vin$15 Vin$16 Vout$7 Vin$17 Vin$18 Vout$8
+ Vin$19 Vin$20 anode|cathode|pad|pad_sclk_pad
+ anode|cathode|pad|pad_RO_101_DUT_gate_pad RD[42]|a4|z RD[41]|a4|z i i$1 i$2
+ i$3 i$4 core$5 DUT_gate|core|p2c core$6 anode|cathode|pad|pad_cs_pad
+ anode|cathode|pad|pad_RO_13_DUT_gate_pad Vin|Vout|core|extra_load|padres$1
+ Vin$21 Vin$22 Vin$23 Vin$24 Vin$25 Vin$26 Vin$27 Vin$28 Vin$29 Vin$30 Vin$31
+ Vin$32 Vin$33 Vin$34 Vin$35 Vin$36 Vin$37 Vin$38 Vin$39 Vin$40 Vin$41 Vin$42
+ Vin$43 Vin$44 Vin$45 Vin$46 Vin$47 Vin$48 Vin$49 Vin$50 Vin$51 Vin$52 Vin$53
+ Vin$54 Vin$55 Vin$56 Vin$57 Vin$58 Vin$59 Vin$60 Vin$61 Vin$62 Vin$63 Vin$64
+ Vin$65 Vin$66 Vin$67 Vin$68 Vin$69 Vin$70 Vin$71 Vin$72 Vin$73 Vin$74 Vin$75
+ Vin$76 Vin$77 Vin$78 Vin$79 Vin$80 Vin$81 Vin$82 Vin$83 Vin$84 Vin$85 Vin$86
+ Vin$87 Vin$88 Vin$89 Vin$90 Vin$91 Vin$92 Vin$93 Vin$94 Vin$95 Vin$96 Vin$97
+ Vin$98 Vin$99 Vin$100 Vin$101 Vin$102 Vin$103 Vin$104 Vout$9 Vin$105 Vin$106
+ Vin$107 Drain_Sense|Vout|core|padres$1 Drain_Force|Vout|core|padres$1
+ IN|Vin|Vout Vin$108 Vin$109 Vin|Vout$1 Vin|Vout$2 Vin|Vout$3 Vin|Vout$4
+ Vin|Vout$5 Vin|Vout$6 Vin|Vout$7 Vin|Vout$8 Vin|Vout$9 Vin|Vout$10
+ Vin|Vout$11 Vin|Vout$12 Vin|Vout$13 Vin|Vout$14 Vin|Vout$15 Vin|Vout$16
+ Vin|Vout$17 Vin|Vout$18 Vin|Vout$19 Vin|Vout$20 Vin|Vout$21 Vin|Vout$22
+ Vin|Vout$23 Vin|Vout$24 Vin|Vout$25 Vin|Vout$26 Vin|Vout$27 Vin|Vout$28
+ Vin|Vout$29 Vin|Vout$30 Vin|Vout$31 Vin|Vout$32 Vin|Vout$33 Vin|Vout$34
+ Vin|Vout$35 Vin|Vout$36 Vin|Vout$37 Vin|Vout$38 Vin|Vout$39 Vin|Vout$40
+ Vin|Vout$41 Vin|Vout$42 Vin|Vout$43 Vin$110 ROVDD|VDD|anode|cathode|nclk|pad
+ Vin$111 Vin$112 Vin|Vout$44 Vin$113 Vin$114 Vin|Vout$45 Vin$115 Vin$116
+ Vin|Vout$46 Vin$117 Vin$118 Vin|Vout$47 Vin$119 Vin$120 Vin|Vout$48 Vin$121
+ Vin$122 Vin|Vout$49 Vin$123 Vin$124 Vin|Vout$50 Vin$125 Vin$126 Vin|Vout$51
+ Vin$127 Vin$128 Vin|Vout$52 Vin$129 Vin$130 Vin|Vout$53 Vin$131 Vin$132
+ Vin|Vout$54 Vin$133 Vin$134 Vin|Vout$55 Vin$135 Vin$136 Vin|Vout$56 Vin$137
+ Vin$138 Vin|Vout$57 Vin$139 Vin$140 Vin|Vout$58 Vin$141 Vin$142 Vin|Vout$59
+ Vin$143 Vin$144 Vin|Vout$60 Vin$145 Vin$146 Vin|Vout$61 Vin$147 Vin$148
+ Vin|Vout$62 Vin$149 Vin$150 Vin|Vout$63 Vin$151 Vin$152 Vin|Vout$64 Vin$153
+ Vin$154 Vin|Vout$65 Vin$155 Vin$156 Vin|Vout$66 Vin$157 Vin$158 Vin|Vout$67
+ Vin$159 Vin$160 Vin|Vout$68 Vin$161 Vin$162 Vin|Vout$69 Vin$163 Vin$164
+ Vin|Vout$70 Vin$165 Vin$166 Vin|Vout$71 Vin$167 Vin$168 Vin|Vout$72 Vin$169
+ Vin$170 Vin|Vout$73 Vin$171 Vin$172 Vin|Vout$74 Vin$173 Vin$174 Vin|Vout$75
+ Vin$175 Vin$176 Vin|Vout$76 Vin$177 Vin$178 Vin|Vout$77 Vin$179 Vin$180
+ Vin|Vout$78 Vin$181 Vin$182 Vin|Vout$79 Vin$183 Vin$184 Vin|Vout$80 Vin$185
+ Vin$186 Vin|Vout$81 Vin$187 Vin$188 Vin|Vout$82 Vin$189 Vin$190 Vin|Vout$83
+ Vin$191 Vin$192 Vin|Vout$84 Vin$193 Vin$194 Vin|Vout$85 Vin$195 Vin$196
+ Vin|Vout$86 Vin$197 Vin$198 Vin|Vout$87 Vin$199 Vin$200 Vin|Vout$88 Vin$201
+ Vin$202 Vin|Vout$89 Vin$203 Vin$204 Vin|Vout$90 Vin$205 Vin$206 Vin|Vout$91
+ Vin$207 Vin$208 Vin|Vout$92 Vin$209 Vin$210 Vin|Vout$93 Vin$211 Vin$212
+ Vin|Vout$94 Vin$213 Vin$214 Vin|Vout$95 Vin$215 Vin$216 Vin|Vout$96 Vin$217
+ Vin$218 core$7 OUT|Q|c2p|core|i$1 D|Q_N$5 D|Q_N$6 D|Q_N$7 D|Q_N$8 D|Q_N$9
+ DUT_gate|core|p2c$1 Q$4 Q$5 Q$6 Q$7 core$8
+ anode|cathode|pad|pad_RO_101_Drain_Force_pad
+ anode|cathode|pad|pad_RO_101_Drain_Sense_pad
+ anode|cathode|pad|pad_RO_101_extra_load_pad
+ anode|cathode|pad|pad_RO_13_Drain_Force_pad
+ anode|cathode|pad|pad_RO_13_Drain_Sense_pad
+ anode|cathode|pad|pad_RO_13_extra_load_pad core|padres$1 core|padres$2
+ gate|o|pgate$8 gate|ngate|o$8 gate|o|pgate$9 gate|ngate|o$9
+ anode|cathode|pad|pad_RO_101_Vout_pad anode|cathode|pad|pad_RO_13_Vout_pad
M$1 RST|a1|b|cdn|core|i|p2c \$64422 VSS|anode|cathode|clk|vss
+ VSS|anode|cathode|clk|vss sg13_lv_nmos L=0.13u W=2.75u AS=0.935p AD=0.935p
+ PS=6.18u PD=6.18u
M$2 CLK|core|i|p2c \$64424 VSS|anode|cathode|clk|vss VSS|anode|cathode|clk|vss
+ sg13_lv_nmos L=0.13u W=2.75u AS=0.935p AD=0.935p PS=6.18u PD=6.18u
M$3 \$63550 RESULT[0]|c2p|core|i|q VSS|anode|cathode|clk|vss
+ VSS|anode|cathode|clk|vss sg13_lv_nmos L=0.13u W=2.75u AS=0.935p AD=0.935p
+ PS=6.18u PD=6.18u
M$4 \$63551 RESULT[0]|c2p|core|i|q VSS|anode|cathode|clk|vss
+ VSS|anode|cathode|clk|vss sg13_lv_nmos L=0.13u W=2.75u AS=0.935p AD=0.935p
+ PS=6.18u PD=6.18u
M$5 \$63553 RESULT[1]|c2p|core|i|q VSS|anode|cathode|clk|vss
+ VSS|anode|cathode|clk|vss sg13_lv_nmos L=0.13u W=2.75u AS=0.935p AD=0.935p
+ PS=6.18u PD=6.18u
M$6 \$63554 RESULT[1]|c2p|core|i|q VSS|anode|cathode|clk|vss
+ VSS|anode|cathode|clk|vss sg13_lv_nmos L=0.13u W=2.75u AS=0.935p AD=0.935p
+ PS=6.18u PD=6.18u
M$7 \$63556 RESULT[2]|c2p|core|i|q VSS|anode|cathode|clk|vss
+ VSS|anode|cathode|clk|vss sg13_lv_nmos L=0.13u W=2.75u AS=0.935p AD=0.935p
+ PS=6.18u PD=6.18u
M$8 \$63557 RESULT[2]|c2p|core|i|q VSS|anode|cathode|clk|vss
+ VSS|anode|cathode|clk|vss sg13_lv_nmos L=0.13u W=2.75u AS=0.935p AD=0.935p
+ PS=6.18u PD=6.18u
M$9 \$63559 RESULT[3]|c2p|core|i|q VSS|anode|cathode|clk|vss
+ VSS|anode|cathode|clk|vss sg13_lv_nmos L=0.13u W=2.75u AS=0.935p AD=0.935p
+ PS=6.18u PD=6.18u
M$10 \$63560 RESULT[3]|c2p|core|i|q VSS|anode|cathode|clk|vss
+ VSS|anode|cathode|clk|vss sg13_lv_nmos L=0.13u W=2.75u AS=0.935p AD=0.935p
+ PS=6.18u PD=6.18u
M$11 \$63562 RESULT[4]|c2p|core|i|q VSS|anode|cathode|clk|vss
+ VSS|anode|cathode|clk|vss sg13_lv_nmos L=0.13u W=2.75u AS=0.935p AD=0.935p
+ PS=6.18u PD=6.18u
M$12 \$63563 RESULT[4]|c2p|core|i|q VSS|anode|cathode|clk|vss
+ VSS|anode|cathode|clk|vss sg13_lv_nmos L=0.13u W=2.75u AS=0.935p AD=0.935p
+ PS=6.18u PD=6.18u
M$13 \$63565 VALID|a3|c2p|core|i|z VSS|anode|cathode|clk|vss
+ VSS|anode|cathode|clk|vss sg13_lv_nmos L=0.13u W=2.75u AS=0.935p AD=0.935p
+ PS=6.18u PD=6.18u
M$14 \$63566 VALID|a3|c2p|core|i|z VSS|anode|cathode|clk|vss
+ VSS|anode|cathode|clk|vss sg13_lv_nmos L=0.13u W=2.75u AS=0.935p AD=0.935p
+ PS=6.18u PD=6.18u
M$15 \$63568 SAMPLE|a1|c2p|core|i|z VSS|anode|cathode|clk|vss
+ VSS|anode|cathode|clk|vss sg13_lv_nmos L=0.13u W=2.75u AS=0.935p AD=0.935p
+ PS=6.18u PD=6.18u
M$16 \$63569 SAMPLE|a1|c2p|core|i|z VSS|anode|cathode|clk|vss
+ VSS|anode|cathode|clk|vss sg13_lv_nmos L=0.13u W=2.75u AS=0.935p AD=0.935p
+ PS=6.18u PD=6.18u
M$17 \$89657 \$89973 \$89657 VSS|anode|cathode|clk|vss sg13_lv_nmos L=0.13u
+ W=51.84u AS=22.1616p AD=22.1616p PS=117.72u PD=117.72u
M$53 \$89658 \$89974 \$89658 VSS|anode|cathode|clk|vss sg13_lv_nmos L=0.13u
+ W=51.84u AS=22.1616p AD=22.1616p PS=117.72u PD=117.72u
M$89 \$89659 \$89975 \$89659 VSS|anode|cathode|clk|vss sg13_lv_nmos L=0.13u
+ W=51.84u AS=22.1616p AD=22.1616p PS=117.72u PD=117.72u
M$125 \$89660 \$89976 \$89660 VSS|anode|cathode|clk|vss sg13_lv_nmos L=0.13u
+ W=51.84u AS=22.1616p AD=22.1616p PS=117.72u PD=117.72u
M$161 \$89661 \$89977 \$89661 VSS|anode|cathode|clk|vss sg13_lv_nmos L=0.13u
+ W=51.84u AS=22.1616p AD=22.1616p PS=117.72u PD=117.72u
M$197 \$89662 \$89978 \$89662 VSS|anode|cathode|clk|vss sg13_lv_nmos L=0.13u
+ W=51.84u AS=22.1616p AD=22.1616p PS=117.72u PD=117.72u
M$233 \$89663 \$89979 \$89663 VSS|anode|cathode|clk|vss sg13_lv_nmos L=0.13u
+ W=51.84u AS=22.1616p AD=22.1616p PS=117.72u PD=117.72u
M$269 \$89664 \$89980 \$89664 VSS|anode|cathode|clk|vss sg13_lv_nmos L=0.13u
+ W=51.84u AS=22.1616p AD=22.1616p PS=117.72u PD=117.72u
M$305 \$89665 \$89981 \$89665 VSS|anode|cathode|clk|vss sg13_lv_nmos L=0.13u
+ W=51.84u AS=22.1616p AD=22.1616p PS=117.72u PD=117.72u
M$341 \$89666 \$89982 \$89666 VSS|anode|cathode|clk|vss sg13_lv_nmos L=0.13u
+ W=51.84u AS=22.1616p AD=22.1616p PS=117.72u PD=117.72u
M$737 VSS|anode|cathode|clk|vss a2|zn \$92658 VSS|anode|cathode|clk|vss
+ sg13_lv_nmos L=0.13u W=0.72u AS=0.4068p AD=0.2988p PS=2.57u PD=1.55u
M$738 \$92658 a1|z d|zn VSS|anode|cathode|clk|vss sg13_lv_nmos L=0.13u W=0.72u
+ AS=0.2988p AD=0.2988p PS=1.55u PD=1.55u
M$739 d|zn b|zn VSS|anode|cathode|clk|vss VSS|anode|cathode|clk|vss
+ sg13_lv_nmos L=0.13u W=0.72u AS=0.2988p AD=0.4068p PS=1.55u PD=2.57u
M$740 GO|a2|core|p2c \$90525 VSS|anode|cathode|clk|vss
+ VSS|anode|cathode|clk|vss sg13_lv_nmos L=0.13u W=2.75u AS=0.935p AD=0.935p
+ PS=6.18u PD=6.18u
M$741 \$94761 \$95239 \$94761 VSS|anode|cathode|clk|vss sg13_lv_nmos L=0.13u
+ W=51.84u AS=22.1616p AD=22.1616p PS=117.72u PD=117.72u
M$753 \$92959 z$6 \$92959 VSS|anode|cathode|clk|vss sg13_lv_nmos L=0.13u
+ W=0.36u AS=0.2034p AD=0.2034p PS=1.85u PD=1.85u
M$754 \$89973 zn$1 \$92959 VSS|anode|cathode|clk|vss sg13_lv_nmos L=0.13u
+ W=0.72u AS=0.4068p AD=0.4068p PS=3.7u PD=3.7u
M$755 \$89973 z$6 \$89973 VSS|anode|cathode|clk|vss sg13_lv_nmos L=0.13u
+ W=1.08u AS=0.6102p AD=0.6102p PS=5.55u PD=5.55u
M$770 \$92960 zn$1 \$89973 VSS|anode|cathode|clk|vss sg13_lv_nmos L=0.13u
+ W=0.72u AS=0.4068p AD=0.4068p PS=3.7u PD=3.7u
M$771 \$92960 z$6 \$92960 VSS|anode|cathode|clk|vss sg13_lv_nmos L=0.13u
+ W=0.36u AS=0.2034p AD=0.2034p PS=1.85u PD=1.85u
M$786 \$92961 zn$1 \$89973 VSS|anode|cathode|clk|vss sg13_lv_nmos L=0.13u
+ W=0.72u AS=0.4068p AD=0.4068p PS=3.7u PD=3.7u
M$787 \$92961 z$6 \$92961 VSS|anode|cathode|clk|vss sg13_lv_nmos L=0.13u
+ W=0.36u AS=0.2034p AD=0.2034p PS=1.85u PD=1.85u
M$789 \$94762 \$95240 \$94762 VSS|anode|cathode|clk|vss sg13_lv_nmos L=0.13u
+ W=829.44u AS=354.5856p AD=354.5856p PS=1883.52u PD=1883.52u
M$801 \$92962 z$6 \$92962 VSS|anode|cathode|clk|vss sg13_lv_nmos L=0.13u
+ W=0.36u AS=0.2034p AD=0.2034p PS=1.85u PD=1.85u
M$802 \$89974 zn$1 \$92962 VSS|anode|cathode|clk|vss sg13_lv_nmos L=0.13u
+ W=0.72u AS=0.4068p AD=0.4068p PS=3.7u PD=3.7u
M$803 \$89974 z$6 \$89974 VSS|anode|cathode|clk|vss sg13_lv_nmos L=0.13u
+ W=1.08u AS=0.6102p AD=0.6102p PS=5.55u PD=5.55u
M$818 \$92963 zn$1 \$89974 VSS|anode|cathode|clk|vss sg13_lv_nmos L=0.13u
+ W=0.72u AS=0.4068p AD=0.4068p PS=3.7u PD=3.7u
M$819 \$92963 z$6 \$92963 VSS|anode|cathode|clk|vss sg13_lv_nmos L=0.13u
+ W=0.36u AS=0.2034p AD=0.2034p PS=1.85u PD=1.85u
M$834 \$92964 zn$1 \$89974 VSS|anode|cathode|clk|vss sg13_lv_nmos L=0.13u
+ W=0.72u AS=0.4068p AD=0.4068p PS=3.7u PD=3.7u
M$835 \$92964 z$6 \$92964 VSS|anode|cathode|clk|vss sg13_lv_nmos L=0.13u
+ W=0.36u AS=0.2034p AD=0.2034p PS=1.85u PD=1.85u
M$849 \$92965 z$6 \$92965 VSS|anode|cathode|clk|vss sg13_lv_nmos L=0.13u
+ W=0.36u AS=0.2034p AD=0.2034p PS=1.85u PD=1.85u
M$850 \$89975 zn$1 \$92965 VSS|anode|cathode|clk|vss sg13_lv_nmos L=0.13u
+ W=0.72u AS=0.4068p AD=0.4068p PS=3.7u PD=3.7u
M$851 \$89975 z$6 \$89975 VSS|anode|cathode|clk|vss sg13_lv_nmos L=0.13u
+ W=1.08u AS=0.6102p AD=0.6102p PS=5.55u PD=5.55u
M$866 \$92966 zn$1 \$89975 VSS|anode|cathode|clk|vss sg13_lv_nmos L=0.13u
+ W=0.72u AS=0.4068p AD=0.4068p PS=3.7u PD=3.7u
M$867 \$92966 z$6 \$92966 VSS|anode|cathode|clk|vss sg13_lv_nmos L=0.13u
+ W=0.36u AS=0.2034p AD=0.2034p PS=1.85u PD=1.85u
M$882 \$92967 zn$1 \$89975 VSS|anode|cathode|clk|vss sg13_lv_nmos L=0.13u
+ W=0.72u AS=0.4068p AD=0.4068p PS=3.7u PD=3.7u
M$883 \$92967 z$6 \$92967 VSS|anode|cathode|clk|vss sg13_lv_nmos L=0.13u
+ W=0.36u AS=0.2034p AD=0.2034p PS=1.85u PD=1.85u
M$897 \$92968 z$6 \$92968 VSS|anode|cathode|clk|vss sg13_lv_nmos L=0.13u
+ W=0.36u AS=0.2034p AD=0.2034p PS=1.85u PD=1.85u
M$898 \$89976 zn$1 \$92968 VSS|anode|cathode|clk|vss sg13_lv_nmos L=0.13u
+ W=0.72u AS=0.4068p AD=0.4068p PS=3.7u PD=3.7u
M$899 \$89976 z$6 \$89976 VSS|anode|cathode|clk|vss sg13_lv_nmos L=0.13u
+ W=1.08u AS=0.6102p AD=0.6102p PS=5.55u PD=5.55u
M$914 \$92969 zn$1 \$89976 VSS|anode|cathode|clk|vss sg13_lv_nmos L=0.13u
+ W=0.72u AS=0.4068p AD=0.4068p PS=3.7u PD=3.7u
M$915 \$92969 z$6 \$92969 VSS|anode|cathode|clk|vss sg13_lv_nmos L=0.13u
+ W=0.36u AS=0.2034p AD=0.2034p PS=1.85u PD=1.85u
M$930 \$92970 zn$1 \$89976 VSS|anode|cathode|clk|vss sg13_lv_nmos L=0.13u
+ W=0.72u AS=0.4068p AD=0.4068p PS=3.7u PD=3.7u
M$931 \$92970 z$6 \$92970 VSS|anode|cathode|clk|vss sg13_lv_nmos L=0.13u
+ W=0.36u AS=0.2034p AD=0.2034p PS=1.85u PD=1.85u
M$945 \$92971 z$6 \$92971 VSS|anode|cathode|clk|vss sg13_lv_nmos L=0.13u
+ W=0.36u AS=0.2034p AD=0.2034p PS=1.85u PD=1.85u
M$946 \$89977 zn$1 \$92971 VSS|anode|cathode|clk|vss sg13_lv_nmos L=0.13u
+ W=0.72u AS=0.4068p AD=0.4068p PS=3.7u PD=3.7u
M$947 \$89977 z$6 \$89977 VSS|anode|cathode|clk|vss sg13_lv_nmos L=0.13u
+ W=1.08u AS=0.6102p AD=0.6102p PS=5.55u PD=5.55u
M$962 \$92972 zn$1 \$89977 VSS|anode|cathode|clk|vss sg13_lv_nmos L=0.13u
+ W=0.72u AS=0.4068p AD=0.4068p PS=3.7u PD=3.7u
M$963 \$92972 z$6 \$92972 VSS|anode|cathode|clk|vss sg13_lv_nmos L=0.13u
+ W=0.36u AS=0.2034p AD=0.2034p PS=1.85u PD=1.85u
M$978 \$92973 zn$1 \$89977 VSS|anode|cathode|clk|vss sg13_lv_nmos L=0.13u
+ W=0.72u AS=0.4068p AD=0.4068p PS=3.7u PD=3.7u
M$979 \$92973 z$6 \$92973 VSS|anode|cathode|clk|vss sg13_lv_nmos L=0.13u
+ W=0.36u AS=0.2034p AD=0.2034p PS=1.85u PD=1.85u
M$993 \$92974 z$6 \$92974 VSS|anode|cathode|clk|vss sg13_lv_nmos L=0.13u
+ W=0.36u AS=0.2034p AD=0.2034p PS=1.85u PD=1.85u
M$994 \$89978 zn$1 \$92974 VSS|anode|cathode|clk|vss sg13_lv_nmos L=0.13u
+ W=0.72u AS=0.4068p AD=0.4068p PS=3.7u PD=3.7u
M$995 \$89978 z$6 \$89978 VSS|anode|cathode|clk|vss sg13_lv_nmos L=0.13u
+ W=1.08u AS=0.6102p AD=0.6102p PS=5.55u PD=5.55u
M$1010 \$92975 zn$1 \$89978 VSS|anode|cathode|clk|vss sg13_lv_nmos L=0.13u
+ W=0.72u AS=0.4068p AD=0.4068p PS=3.7u PD=3.7u
M$1011 \$92975 z$6 \$92975 VSS|anode|cathode|clk|vss sg13_lv_nmos L=0.13u
+ W=0.36u AS=0.2034p AD=0.2034p PS=1.85u PD=1.85u
M$1026 \$92976 zn$1 \$89978 VSS|anode|cathode|clk|vss sg13_lv_nmos L=0.13u
+ W=0.72u AS=0.4068p AD=0.4068p PS=3.7u PD=3.7u
M$1027 \$92976 z$6 \$92976 VSS|anode|cathode|clk|vss sg13_lv_nmos L=0.13u
+ W=0.36u AS=0.2034p AD=0.2034p PS=1.85u PD=1.85u
M$1041 \$92977 z$6 \$92977 VSS|anode|cathode|clk|vss sg13_lv_nmos L=0.13u
+ W=0.36u AS=0.2034p AD=0.2034p PS=1.85u PD=1.85u
M$1042 \$89979 zn$1 \$92977 VSS|anode|cathode|clk|vss sg13_lv_nmos L=0.13u
+ W=0.72u AS=0.4068p AD=0.4068p PS=3.7u PD=3.7u
M$1043 \$89979 z$6 \$89979 VSS|anode|cathode|clk|vss sg13_lv_nmos L=0.13u
+ W=1.08u AS=0.6102p AD=0.6102p PS=5.55u PD=5.55u
M$1058 \$92978 zn$1 \$89979 VSS|anode|cathode|clk|vss sg13_lv_nmos L=0.13u
+ W=0.72u AS=0.4068p AD=0.4068p PS=3.7u PD=3.7u
M$1059 \$92978 z$6 \$92978 VSS|anode|cathode|clk|vss sg13_lv_nmos L=0.13u
+ W=0.36u AS=0.2034p AD=0.2034p PS=1.85u PD=1.85u
M$1074 \$92979 zn$1 \$89979 VSS|anode|cathode|clk|vss sg13_lv_nmos L=0.13u
+ W=0.72u AS=0.4068p AD=0.4068p PS=3.7u PD=3.7u
M$1075 \$92979 z$6 \$92979 VSS|anode|cathode|clk|vss sg13_lv_nmos L=0.13u
+ W=0.36u AS=0.2034p AD=0.2034p PS=1.85u PD=1.85u
M$1089 \$92980 z$6 \$92980 VSS|anode|cathode|clk|vss sg13_lv_nmos L=0.13u
+ W=0.36u AS=0.2034p AD=0.2034p PS=1.85u PD=1.85u
M$1090 \$89980 zn$1 \$92980 VSS|anode|cathode|clk|vss sg13_lv_nmos L=0.13u
+ W=0.72u AS=0.4068p AD=0.4068p PS=3.7u PD=3.7u
M$1091 \$89980 z$6 \$89980 VSS|anode|cathode|clk|vss sg13_lv_nmos L=0.13u
+ W=1.08u AS=0.6102p AD=0.6102p PS=5.55u PD=5.55u
M$1106 \$92981 zn$1 \$89980 VSS|anode|cathode|clk|vss sg13_lv_nmos L=0.13u
+ W=0.72u AS=0.4068p AD=0.4068p PS=3.7u PD=3.7u
M$1107 \$92981 z$6 \$92981 VSS|anode|cathode|clk|vss sg13_lv_nmos L=0.13u
+ W=0.36u AS=0.2034p AD=0.2034p PS=1.85u PD=1.85u
M$1122 \$92982 zn$1 \$89980 VSS|anode|cathode|clk|vss sg13_lv_nmos L=0.13u
+ W=0.72u AS=0.4068p AD=0.4068p PS=3.7u PD=3.7u
M$1123 \$92982 z$6 \$92982 VSS|anode|cathode|clk|vss sg13_lv_nmos L=0.13u
+ W=0.36u AS=0.2034p AD=0.2034p PS=1.85u PD=1.85u
M$1137 \$92983 z$6 \$92983 VSS|anode|cathode|clk|vss sg13_lv_nmos L=0.13u
+ W=0.36u AS=0.2034p AD=0.2034p PS=1.85u PD=1.85u
M$1138 \$89981 zn$1 \$92983 VSS|anode|cathode|clk|vss sg13_lv_nmos L=0.13u
+ W=0.72u AS=0.4068p AD=0.4068p PS=3.7u PD=3.7u
M$1139 \$89981 z$6 \$89981 VSS|anode|cathode|clk|vss sg13_lv_nmos L=0.13u
+ W=1.08u AS=0.6102p AD=0.6102p PS=5.55u PD=5.55u
M$1154 \$92984 zn$1 \$89981 VSS|anode|cathode|clk|vss sg13_lv_nmos L=0.13u
+ W=0.72u AS=0.4068p AD=0.4068p PS=3.7u PD=3.7u
M$1155 \$92984 z$6 \$92984 VSS|anode|cathode|clk|vss sg13_lv_nmos L=0.13u
+ W=0.36u AS=0.2034p AD=0.2034p PS=1.85u PD=1.85u
M$1170 \$92985 zn$1 \$89981 VSS|anode|cathode|clk|vss sg13_lv_nmos L=0.13u
+ W=0.72u AS=0.4068p AD=0.4068p PS=3.7u PD=3.7u
M$1171 \$92985 z$6 \$92985 VSS|anode|cathode|clk|vss sg13_lv_nmos L=0.13u
+ W=0.36u AS=0.2034p AD=0.2034p PS=1.85u PD=1.85u
M$1173 \$94763 \$95241 \$94763 VSS|anode|cathode|clk|vss sg13_lv_nmos L=0.13u
+ W=51.84u AS=22.1616p AD=22.1616p PS=117.72u PD=117.72u
M$1185 \$92986 z$6 \$92986 VSS|anode|cathode|clk|vss sg13_lv_nmos L=0.13u
+ W=0.36u AS=0.2034p AD=0.2034p PS=1.85u PD=1.85u
M$1186 \$89982 zn$1 \$92986 VSS|anode|cathode|clk|vss sg13_lv_nmos L=0.13u
+ W=0.72u AS=0.4068p AD=0.4068p PS=3.7u PD=3.7u
M$1187 \$89982 z$6 \$89982 VSS|anode|cathode|clk|vss sg13_lv_nmos L=0.13u
+ W=1.08u AS=0.6102p AD=0.6102p PS=5.55u PD=5.55u
M$1202 \$92987 zn$1 \$89982 VSS|anode|cathode|clk|vss sg13_lv_nmos L=0.13u
+ W=0.72u AS=0.4068p AD=0.4068p PS=3.7u PD=3.7u
M$1203 \$92987 z$6 \$92987 VSS|anode|cathode|clk|vss sg13_lv_nmos L=0.13u
+ W=0.36u AS=0.2034p AD=0.2034p PS=1.85u PD=1.85u
M$1218 \$92988 zn$1 \$89982 VSS|anode|cathode|clk|vss sg13_lv_nmos L=0.13u
+ W=0.72u AS=0.4068p AD=0.4068p PS=3.7u PD=3.7u
M$1219 \$92988 z$6 \$92988 VSS|anode|cathode|clk|vss sg13_lv_nmos L=0.13u
+ W=0.36u AS=0.2034p AD=0.2034p PS=1.85u PD=1.85u
M$1581 \$94525 a1|z$3 \$95372 VSS|anode|cathode|clk|vss sg13_lv_nmos L=0.13u
+ W=0.655u AS=0.370075p AD=0.271825p PS=2.44u PD=1.485u
M$1582 VSS|anode|cathode|clk|vss a2|z \$95372 VSS|anode|cathode|clk|vss
+ sg13_lv_nmos L=0.13u W=0.655u AS=0.2901875p AD=0.271825p PS=1.55u PD=1.485u
M$1583 VSS|anode|cathode|clk|vss \$94525 d|z VSS|anode|cathode|clk|vss
+ sg13_lv_nmos L=0.13u W=0.72u AS=0.2901875p AD=0.4068p PS=1.55u PD=2.57u
M$1584 b|zn$1 a1|a2|a3|z \$95374 VSS|anode|cathode|clk|vss sg13_lv_nmos L=0.13u
+ W=0.72u AS=0.4068p AD=0.2988p PS=2.57u PD=1.55u
M$1585 \$95374 GO|a2|core|p2c \$95375 VSS|anode|cathode|clk|vss sg13_lv_nmos
+ L=0.13u W=0.72u AS=0.2988p AD=0.2988p PS=1.55u PD=1.55u
M$1586 \$95375 a2|a3|zn VSS|anode|cathode|clk|vss VSS|anode|cathode|clk|vss
+ sg13_lv_nmos L=0.13u W=0.72u AS=0.2988p AD=0.4068p PS=1.55u PD=2.57u
M$1587 VSS|anode|cathode|clk|vss a2|zn$1 \$96161 VSS|anode|cathode|clk|vss
+ sg13_lv_nmos L=0.13u W=0.72u AS=0.4068p AD=0.2988p PS=2.57u PD=1.55u
M$1588 \$96161 a1|z$4 d|zn$1 VSS|anode|cathode|clk|vss sg13_lv_nmos L=0.13u
+ W=0.72u AS=0.2988p AD=0.2988p PS=1.55u PD=1.55u
M$1589 d|zn$1 b|zn VSS|anode|cathode|clk|vss VSS|anode|cathode|clk|vss
+ sg13_lv_nmos L=0.13u W=0.72u AS=0.2988p AD=0.4068p PS=1.55u PD=2.57u
M$1590 a1|z$1 a1|b|i|q$1 VSS|anode|cathode|clk|vss VSS|anode|cathode|clk|vss
+ sg13_lv_nmos L=0.13u W=0.72u AS=0.4068p AD=0.4068p PS=2.57u PD=2.57u
M$1591 a1|z$2 a1|b|i|q VSS|anode|cathode|clk|vss VSS|anode|cathode|clk|vss
+ sg13_lv_nmos L=0.13u W=0.72u AS=0.4068p AD=0.4068p PS=2.57u PD=2.57u
M$1592 \$100188 \$100549 \$100188 VSS|anode|cathode|clk|vss sg13_lv_nmos
+ L=0.13u W=51.84u AS=22.1616p AD=22.1616p PS=117.72u PD=117.72u
M$1604 \$98170 z$6 \$98170 VSS|anode|cathode|clk|vss sg13_lv_nmos L=0.13u
+ W=0.36u AS=0.2034p AD=0.2034p PS=1.85u PD=1.85u
M$1605 \$95239 zn$1 \$98170 VSS|anode|cathode|clk|vss sg13_lv_nmos L=0.13u
+ W=0.72u AS=0.4068p AD=0.4068p PS=3.7u PD=3.7u
M$1606 \$95239 z$6 \$95239 VSS|anode|cathode|clk|vss sg13_lv_nmos L=0.13u
+ W=1.08u AS=0.6102p AD=0.6102p PS=5.55u PD=5.55u
M$1621 \$98171 zn$1 \$95239 VSS|anode|cathode|clk|vss sg13_lv_nmos L=0.13u
+ W=0.72u AS=0.4068p AD=0.4068p PS=3.7u PD=3.7u
M$1622 \$98171 z$6 \$98171 VSS|anode|cathode|clk|vss sg13_lv_nmos L=0.13u
+ W=0.36u AS=0.2034p AD=0.2034p PS=1.85u PD=1.85u
M$1637 \$98172 zn$1 \$95239 VSS|anode|cathode|clk|vss sg13_lv_nmos L=0.13u
+ W=0.72u AS=0.4068p AD=0.4068p PS=3.7u PD=3.7u
M$1638 \$98172 z$6 \$98172 VSS|anode|cathode|clk|vss sg13_lv_nmos L=0.13u
+ W=0.36u AS=0.2034p AD=0.2034p PS=1.85u PD=1.85u
M$1652 a2 z$3 a2 VSS|anode|cathode|clk|vss sg13_lv_nmos L=0.13u W=5.76u
+ AS=3.2544p AD=3.2544p PS=29.6u PD=29.6u
M$1653 \$95240 z$1 a2 VSS|anode|cathode|clk|vss sg13_lv_nmos L=0.13u W=11.52u
+ AS=6.5088p AD=6.5088p PS=59.2u PD=59.2u
M$1654 \$95240 z$3 \$95240 VSS|anode|cathode|clk|vss sg13_lv_nmos L=0.13u
+ W=5.76u AS=3.2544p AD=3.2544p PS=29.6u PD=29.6u
M$1668 \$95240 z$7 \$95240 VSS|anode|cathode|clk|vss sg13_lv_nmos L=0.13u
+ W=5.76u AS=3.2544p AD=3.2544p PS=29.6u PD=29.6u
M$1669 VIP|core|padres z$4 \$95240 VSS|anode|cathode|clk|vss sg13_lv_nmos
+ L=0.13u W=11.52u AS=6.5088p AD=6.5088p PS=59.2u PD=59.2u
M$1670 VIP|core|padres z$7 VIP|core|padres VSS|anode|cathode|clk|vss
+ sg13_lv_nmos L=0.13u W=5.76u AS=3.2544p AD=3.2544p PS=29.6u PD=29.6u
M$1684 \$95240 z$2 \$95240 VSS|anode|cathode|clk|vss sg13_lv_nmos L=0.13u
+ W=5.76u AS=3.2544p AD=3.2544p PS=29.6u PD=29.6u
M$1685 VIN|core|padres zn \$95240 VSS|anode|cathode|clk|vss sg13_lv_nmos
+ L=0.13u W=11.52u AS=6.5088p AD=6.5088p PS=59.2u PD=59.2u
M$1686 VIN|core|padres z$2 VIN|core|padres VSS|anode|cathode|clk|vss
+ sg13_lv_nmos L=0.13u W=5.76u AS=3.2544p AD=3.2544p PS=29.6u PD=29.6u
M$1736 \$100189 \$100550 \$100189 VSS|anode|cathode|clk|vss sg13_lv_nmos
+ L=0.13u W=414.72u AS=177.2928p AD=177.2928p PS=941.76u PD=941.76u
M$2024 \$100190 \$100551 \$100190 VSS|anode|cathode|clk|vss sg13_lv_nmos
+ L=0.13u W=51.84u AS=22.1616p AD=22.1616p PS=117.72u PD=117.72u
M$2036 \$98175 z$6 \$98175 VSS|anode|cathode|clk|vss sg13_lv_nmos L=0.13u
+ W=0.36u AS=0.2034p AD=0.2034p PS=1.85u PD=1.85u
M$2037 \$95241 zn$1 \$98175 VSS|anode|cathode|clk|vss sg13_lv_nmos L=0.13u
+ W=0.72u AS=0.4068p AD=0.4068p PS=3.7u PD=3.7u
M$2038 \$95241 z$6 \$95241 VSS|anode|cathode|clk|vss sg13_lv_nmos L=0.13u
+ W=1.08u AS=0.6102p AD=0.6102p PS=5.55u PD=5.55u
M$2053 \$98176 zn$1 \$95241 VSS|anode|cathode|clk|vss sg13_lv_nmos L=0.13u
+ W=0.72u AS=0.4068p AD=0.4068p PS=3.7u PD=3.7u
M$2054 \$98176 z$6 \$98176 VSS|anode|cathode|clk|vss sg13_lv_nmos L=0.13u
+ W=0.36u AS=0.2034p AD=0.2034p PS=1.85u PD=1.85u
M$2069 \$98177 zn$1 \$95241 VSS|anode|cathode|clk|vss sg13_lv_nmos L=0.13u
+ W=0.72u AS=0.4068p AD=0.4068p PS=3.7u PD=3.7u
M$2070 \$98177 z$6 \$98177 VSS|anode|cathode|clk|vss sg13_lv_nmos L=0.13u
+ W=0.36u AS=0.2034p AD=0.2034p PS=1.85u PD=1.85u
M$2072 \$97466 \$97411 VSS|anode|cathode|clk|vss VSS|anode|cathode|clk|vss
+ sg13_lv_nmos L=0.13u W=0.72u AS=0.4068p AD=0.2988p PS=2.57u PD=1.55u
M$2073 VSS|anode|cathode|clk|vss cp|z \$97411 VSS|anode|cathode|clk|vss
+ sg13_lv_nmos L=0.13u W=0.72u AS=0.2988p AD=0.4068p PS=1.55u PD=2.57u
M$2074 \$99070 \$98923 VSS|anode|cathode|clk|vss VSS|anode|cathode|clk|vss
+ sg13_lv_nmos L=0.13u W=0.72u AS=0.4068p AD=0.2988p PS=2.57u PD=1.55u
M$2075 VSS|anode|cathode|clk|vss cp|z$1 \$98923 VSS|anode|cathode|clk|vss