* Extracted by KLayout with SG13G2 LVS runset on : 28/08/2025 21:02

.SUBCKT asicone_202508 AVDD|anode|cathode|pad|vdd
+ anode|cathode|pad|pad_adc_rst_pad anode|cathode|pad|pad_adc_clk_pad
+ anode|cathode|pad|pad_adc_result_0_pad anode|cathode|pad|pad_adc_result_1_pad
+ anode|cathode|pad|pad_adc_result_2_pad anode|cathode|pad|pad_adc_result_3_pad
+ anode|cathode|pad|pad_adc_result_4_pad anode|cathode|pad|pad_adc_valid_pad
+ anode|cathode|pad|pad_adc_sample_pad
+ VDDIO|cathode|guard|iovdd|pad|pin1|supply VSSIO|anode|cathode|guard|iovss
+ gate|ngate|o gate|ngate|o$1 gate|ngate|o$2 gate|ngate|o$3 gate|ngate|o$4
+ gate|ngate|o$5 gate|ngate|o$6 gate|o|pgate gate|o|pgate$1 gate|o|pgate$2
+ gate|o|pgate$3 gate|o|pgate$4 gate|o|pgate$5 gate|o|pgate$6 core|padres core
+ core$1 VDD|pad|pin1|supply|vdd RESULT[0]|c2p|core|i|q RESULT[1]|c2p|core|i|q
+ RESULT[2]|c2p|core|i|q RESULT[3]|c2p|core|i|q RESULT[4]|c2p|core|i|q
+ VALID|a3|c2p|core|i|z SAMPLE|a1|c2p|core|i|z VSS|anode|cathode|vss
+ RST|a1|b|cdn|core|i|p2c CLK|core|i|p2c anode|cathode|pad|pad_adc_go_pad i|z z
+ zn z$1 z$2 i|z$1 z$3 z$4 i|z$2 z$5 GO|a2|core|p2c core$2 d|zn a2|zn a1|z b|zn
+ z$6 zn$1 d|z b|zn$1 a1|z$1 a1|z$2 a1|z$3 a1|b|i|q a2|a3|zn a1|b|i|q$1 a2|z
+ a1|a2|a3|z d|zn$1 a2|zn$1 a1|z$4 d|z$1 cp|z a2 VIP|core|padres z$7
+ VIN|core|padres cp|z$1 anode|cathode|pad|pad_adc_vrefp_pad d|zn$2
+ VREFH|core|padres a2$1 z$8 z$9 a2|z$1 z$10 d|z$2 a2|z$2 a2|zn$2 a1|z$5 d|zn$3
+ b|zn$2 a1|z$6 a1|z$7 a1|b|i|q$2 d|zn$4 a1|z$8 d|zn$5 a1|z$9 a2|d|zn a2|zn$3
+ i|z$3 z$11 z$12 z$13 b|q a2|i|q z$14 z$15 z$16 z$17 zn$2 d|z$3 z$18 z$19
+ a2|zn$4 d|zn$6 z$20 i|z$4 a1|b|i|q$3 a2|a3|z a1|z$10 b|zn$3 a2|z$3 a2|zn$5
+ in|pin2 a1|i|q gate|out anode|cathode|pad|pad_adc_vrefn_pad i|zn i|z$5 i|z$6
+ i|z|zn i|z$7 z$21 i|z$8 cp|z$2 i|z$9 d|zn$7 i|z$10 i|z$11 i|z|zn$1 i|z$12
+ i|zn$1 i|z$13 i|z$14 i|z|zn$2 d|zn$8 VREFL|core|padres i|z$15 i|zn$2 i|z$16
+ i|z|zn$3 i|z$17 i|z$18 i|z$19 i|z$20 i|z$21 i|z|zn$4 i|z$22 a1|i|z|zn i|z$23
+ i|zn$3 i|z|zn$5 i|z$24 i|z$25 i|z|zn$6 i|z$26 i|z$27 i|z$28 i|z$29 i|z$30
+ i|zn$4 i|zn$5 i|z$31 i|z$32 i|zn$6 i|z$33 a2|z$4 i|z$34 i|z$35 i|z$36 a1|z$11
+ i|zn$7 i|z$37 i|z|zn$7 i|z$38 i|z|zn$8 i|z$39 i|z$40 a2|i|z i|z$41 a2|z$5
+ i|z$42 i|z$43 i|z$44 i|z$45 i|z$46 i|z$47 i|zn$8 i|z$48 a1|i|q$1 i|z$49
+ i|z$50 i|z$51 i|z$52 i|z$53 i|z$54 a1|c|i|zn i|z$55 z$22 z$23 i|z$56 i|z$57
+ i|zn$9 i|zn$10 i|z$58 i|z$59 i|z$60 i|z$61 a2|b|z i|z$62 i|z$63 i|z$64 i|z$65
+ z$24 a1|c|i|zn$1 i|z$66 z$25 i|z$67 i|z$68 i|zn$11 i|z$69 i|z$70 i|z$71
+ i|z|zn$9 i|z$72 i|z$73 i|z$74 i|z$75 i|z$76 i|z$77 b|i|q i|z$78 i|z$79
+ b|i|q$1 i|z$80 i|z$81 i|z$82 i|z$83 i|z$84 i|z$85 i|z$86 a1|z$12 i|z$87
+ i|z$88 i|z$89 i|zn$12 i|z$90 i|z$91 i|z$92 b|i|q$2 i|z$93 i|z$94 i|zn$13
+ i|z$95 i|z$96 b|zn$4 cp|i|z zn$3 i|z$97 i|z$98 i|z$99 i|z$100 i|z$101 b|i|q$3
+ i|z$102 i|z$103 i|z$104 i|z$105 i|z$106 i|z$107 i|z$108 i|z$109 i|z$110
+ a2|zn$6 a1|z$13 zn$4 i|z$111 i|z$112 i|z$113 i|z$114 cp|z$3 d|zn$9 d|zn$10
+ a2|z$6 anode|cathode|pad|pad_adc_vin_pad b|zn$5 z$26 d|z$4 a2|z$7 b|zn$6
+ RD[8]|a4|z RD[9]|a4|z z$27 zn$5 gate|out$1 in|pin2$1
+ anode|cathode|pad|pad_adc_vip_pad anode|cathode|pad
+ anode|cathode|pad|pad_miso_pad gate|o|pgate$7 core|padres$1
+ DOUT_DAT|c2p|core|i|q gate|ngate|o$7 RD[1]|a2|z RD[13]|a4|zn RD[0]|a2|z i i$1
+ RD[19]|a4|z RD[35]|a2|z RD[21]|a4|z RD[45]|a4|z RD[47]|a4|z RD[3]|a2|z
+ RD[38]|a2|z RD[44]|a4|z RD[24]|a2|z RD[46]|a4|z RD[17]|a4|z RD[34]|a2|z
+ RD[40]|a4|z RD[42]|a4|z RD[37]|a2|z RD[36]|a2|z RD[43]|a4|z RD[33]|a2|z
+ RD[2]|a2|z RD[32]|a2|z RD[4]|a2|z RD[39]|a2|z RD[41]|a4|z R[13]|i|i0|q
+ R[12]|i|i0|q R[15]|i|i0|q i$2 R[8]|i|i0|q R[14]|i|i0|q R[2]|i|i0|q
+ R[5]|i|i0|q R[11]|i|i0|q R[9]|i|i0|q R[3]|i|i0|q R[4]|i|i0|q R[1]|i|i0|q
+ R[0]|i|i0|q i$3 i$4 RD[27]|a2|zn R[7]|i|i0|q RD[5]|a2|zn RD[7]|a2|zn
+ RD[31]|a2|zn RD[14]|a4|zn RD[12]|a4|zn RD[10]|a4|zn RD[18]|a4|zn RD[16]|a4|zn
+ RD[11]|a4|zn RD[20]|a4|zn RD[25]|a2|zn RD[15]|a4|zn RD[22]|a4|zn RD[29]|a2|zn
+ anode|cathode|pad|pad_mosi_pad anode|cathode|pad$1 CLK|core|i|p2c$1
+ DATA|core|i0|i1|p2c CEB|a1|core|i|p2c R[30]|i0|q R[17]|i0|q R[39]|i1|q
+ R[21]|i0|q R[43]|i0|q R[41]|i0|q R[22]|i0|q R[33]|i1|q core|padres$2
+ R[42]|i0|q R[47]|i0|q s|zn a1|zn s|zn$1 d|z$5 R[56]|i1|q d|z$6 a1|zn$1
+ a2|zn$7 a1|zn$2 a1|z$14 a1|zn$3 a2|zn$8 a2|zn$9 a2|z$8 a4|zn a2|zn$10 d|z$7
+ d|z$8 R[48]|i1|q i0|i1|q a2|zn$11 R[59]|i1|q cp|z$4 i0|i1|q$1 a2|z$9
+ a1|a3|i|i1|q a2|a3|zn$1 a1|zn$4 a3|zn a1|zn$5 RD[26]|a2|z a2|a3|z$1 a1|z$15
+ a1|zn$6 a1|zn$7 a1|i|i0|i1|q RD[28]|a2|z cp|i|z$1 core$3 a4|zn$1 a2|zn$12
+ R[51]|i1|q a1|zn$8 R[50]|i1|q a3|zn$1 s|zn$2 a1|zn$9 a4|z d|z$9 a4|zn$2
+ a3|zn$2 i1|zn a2|zn$13 a1|zn$10 a2|zn$14 a2|zn$15 a2|zn$16 a4|zn$3 i1|zn$1
+ a4|zn$4 a2|zn$17 a1|zn$11 a1|zn$12 a1|zn$13 d|z$10 R[35]|i1|q a2|z$10
+ i0|i1|q$2 a2|i|i0|i1|q a1|a3|z a3|zn$3 a1|zn$14 R[58]|i1|q d|z$11 i1|z d|z$12
+ d|z$13 d|z$14 a2|zn$18 a3|zn$4 a1|zn$15 a1|zn$16 i1|z$1 a3|zn$5 a2|zn$19
+ a2|zn$20 a3|zn$6 a3|zn$7 d|z$15 d|z$16 R[60]|i1|q i0|i1|q$3 R[55]|i1|q
+ R[53]|i1|q RD[30]|a2|z RD[23]|a4|z RD[6]|a2|zn a1|zn$17 a1|zn$18 s|z d|z$17
+ d|z$18 a2|zn$21 a4|z$1 a2|zn$22 a2|zn$23 i1|z$2 a1|zn$19 a2|zn$24 a4|zn$5
+ a2|zn$25 i1|z$3 d|z$19 R[6]|i|i0|q i0|i1|q$4 i0|i1|q$5 R[37]|i1|q d|z$20
+ a1|zn$20 R[63]|i1|q d|z$21 d|z$22 d|z$23 d|z$24 i0|i1|q$6 R[57]|i1|q
+ R[62]|i1|q i0|i1|q$7 cp|i|z$2 a1|z$16 cp|i|z$3 d|z$25 R[61]|i1|q R[54]|i1|q
+ d|z$26 i1|zn$2 d|z$27 R[52]|i1|q d|z$28 R[49]|i1|q a2|zn$26 s|z$1 R[27]|i0|q
+ d|z$29 R[34]|i1|q d|z$30 d|z$31 z$28 R[28]|i0|q d|z$32 R[31]|i0|q d|z$33
+ d|z$34 R[25]|i0|q d|z$35 a2|zn$27 d|z$36 d|z$37 i|z$115 a1|a2|a4|z s|zn$3
+ d|z$38 d|z$39 R[32]|i1|q a2|z$11 z$29 R[45]|i0|q R[38]|i1|q d|z$40 d|z$41
+ anode|cathode|pad|pad_sclk_pad anode|cathode|pad$2 s|zn$4 d|z$42 d|z$43 z$30
+ R[36]|i1|q a2|z$12 d|z$44 R[19]|i0|q d|z$45 d|z$46 d|z$47 d|z$48 a2|zn$28
+ a2|zn$29 d|z$49 R[24]|i0|q R[29]|i0|q d|z$50 d|z$51 d|z$52 d|z$53 d|z$54
+ R[10]|i|i0|q d|z$55 R[44]|i0|q R[26]|i0|q d|z$56 core|padres$3 a2|zn$30
+ a3|zn$8 d|z$57 i0|z d|z$58 a2|i|s|zn a1|a2|b|q|s a1|zn$21 b|z a2|zn$31
+ a1|i0|q i0|i1|q$8 d|z$59 R[40]|i0|q R[46]|i0|q d|z$60 d|z$61 d|z$62 d|z$63
+ R[18]|i0|q d|z$64 i0|z$1 d|z$65 cp|i|z$4 cp|i|z$5 d|z$66 cp|i|z$6 i0|i1|q$9
+ core$4 s|zn$5 s|zn$6 d|z$67 d|z$68 d|z$69 cp|i|z$7 d|z$70 R[16]|i0|q d|z$71
+ d|z$72 d|z$73 i0|z$2 R[23]|i0|q d|z$74 d|z$75 d|z$76 d|z$77 i0|i1|q$10
+ R[20]|i0|q i0|z$3 d|z$78 d|z$79 d|z$80 d|z$81 i0|z$4 i0|z$5 i0|i1|q$11
+ i0|i1|q$12 i0|i1|q$13 z$31 d|z$82 d|z$83 d|z$84 d|z$85 a1|a2|q d|z$86 z$32
+ i0|z$6 DOUT_EN|z d|s|zn d|z$87 a1|a2|q$1 d|z$88 a1|zn$22 a2|zn$32 a2|q
+ a1|a2|q$2 a1|i0|q$1 z$33 a1|i1|q a2|i|q$1 a2|z$13 d|z$89 d|z$90 d|z$91 a2|q$1
+ a4|zn$6 a1|a2|q$3 a3|zn$9 z$34 a1|i0|q$2 a2|zn$33 a1|a2|q$4 d|z$92 a2|q$2
+ a2|d|z d|z$93 d|z$94 anode|cathode|pad|pad_cs_pad anode|cathode|pad$3 d|z$95
+ a1|z$17 d|z$96 d|z$97 d|s|z a3|zn$10 a2|q$3 a1|b|d|z a2|zn$34 d|z$98
+ a1|a2|q$5 a2|i|q$2 a3|zn$11 a1|zn$23 a4|zn$7 d|z$99 a1|a2|q$6 d|z$100 a4|zn$8
+ a2|q$4 a1|a2|q$7 a2|q$5 d|z$101 a2|q$6 a2|zn$35 a2|q$7 d|z$102 d|z$103
+ d|z$104 d|z$105 a1|a2|q$8 a2|q$8 core|padres$4 d|z$106 d|z$107 d|z$108
+ a1|a2|q$9 core$5 core|padres$5 anode|cathode|pad$4 core|padres$6
+ anode|cathode|pad$5 core|padres$7 anode|cathode|pad$6 core|padres$8
+ anode|cathode|pad$7 core|padres$9 anode|cathode|pad$8 core|padres$10
+ anode|cathode|pad$9 core|padres$11 anode|cathode|pad$10 core|padres$12
+ anode|cathode|pad$11 core|padres$13 anode|cathode|pad$12 core|padres$14
+ anode|cathode|pad$13
M$1 RST|a1|b|cdn|core|i|p2c \$64423 VSS|anode|cathode|vss VSS|anode|cathode|vss
+ sg13_lv_nmos L=0.13u W=2.75u AS=0.935p AD=0.935p PS=6.18u PD=6.18u
M$2 CLK|core|i|p2c \$64425 VSS|anode|cathode|vss VSS|anode|cathode|vss
+ sg13_lv_nmos L=0.13u W=2.75u AS=0.935p AD=0.935p PS=6.18u PD=6.18u
M$3 \$63550 RESULT[0]|c2p|core|i|q VSS|anode|cathode|vss VSS|anode|cathode|vss
+ sg13_lv_nmos L=0.13u W=2.75u AS=0.935p AD=0.935p PS=6.18u PD=6.18u
M$4 \$63551 RESULT[0]|c2p|core|i|q VSS|anode|cathode|vss VSS|anode|cathode|vss
+ sg13_lv_nmos L=0.13u W=2.75u AS=0.935p AD=0.935p PS=6.18u PD=6.18u
M$5 \$63553 RESULT[1]|c2p|core|i|q VSS|anode|cathode|vss VSS|anode|cathode|vss
+ sg13_lv_nmos L=0.13u W=2.75u AS=0.935p AD=0.935p PS=6.18u PD=6.18u
M$6 \$63554 RESULT[1]|c2p|core|i|q VSS|anode|cathode|vss VSS|anode|cathode|vss
+ sg13_lv_nmos L=0.13u W=2.75u AS=0.935p AD=0.935p PS=6.18u PD=6.18u
M$7 \$63556 RESULT[2]|c2p|core|i|q VSS|anode|cathode|vss VSS|anode|cathode|vss
+ sg13_lv_nmos L=0.13u W=2.75u AS=0.935p AD=0.935p PS=6.18u PD=6.18u
M$8 \$63557 RESULT[2]|c2p|core|i|q VSS|anode|cathode|vss VSS|anode|cathode|vss
+ sg13_lv_nmos L=0.13u W=2.75u AS=0.935p AD=0.935p PS=6.18u PD=6.18u
M$9 \$63559 RESULT[3]|c2p|core|i|q VSS|anode|cathode|vss VSS|anode|cathode|vss
+ sg13_lv_nmos L=0.13u W=2.75u AS=0.935p AD=0.935p PS=6.18u PD=6.18u
M$10 \$63560 RESULT[3]|c2p|core|i|q VSS|anode|cathode|vss VSS|anode|cathode|vss
+ sg13_lv_nmos L=0.13u W=2.75u AS=0.935p AD=0.935p PS=6.18u PD=6.18u
M$11 \$63562 RESULT[4]|c2p|core|i|q VSS|anode|cathode|vss VSS|anode|cathode|vss
+ sg13_lv_nmos L=0.13u W=2.75u AS=0.935p AD=0.935p PS=6.18u PD=6.18u
M$12 \$63563 RESULT[4]|c2p|core|i|q VSS|anode|cathode|vss VSS|anode|cathode|vss
+ sg13_lv_nmos L=0.13u W=2.75u AS=0.935p AD=0.935p PS=6.18u PD=6.18u
M$13 \$63565 VALID|a3|c2p|core|i|z VSS|anode|cathode|vss VSS|anode|cathode|vss
+ sg13_lv_nmos L=0.13u W=2.75u AS=0.935p AD=0.935p PS=6.18u PD=6.18u
M$14 \$63566 VALID|a3|c2p|core|i|z VSS|anode|cathode|vss VSS|anode|cathode|vss
+ sg13_lv_nmos L=0.13u W=2.75u AS=0.935p AD=0.935p PS=6.18u PD=6.18u
M$15 \$63568 SAMPLE|a1|c2p|core|i|z VSS|anode|cathode|vss VSS|anode|cathode|vss
+ sg13_lv_nmos L=0.13u W=2.75u AS=0.935p AD=0.935p PS=6.18u PD=6.18u
M$16 \$63569 SAMPLE|a1|c2p|core|i|z VSS|anode|cathode|vss VSS|anode|cathode|vss
+ sg13_lv_nmos L=0.13u W=2.75u AS=0.935p AD=0.935p PS=6.18u PD=6.18u
M$17 \$89697 \$90053 \$89697 VSS|anode|cathode|vss sg13_lv_nmos L=0.13u
+ W=51.84u AS=22.1616p AD=22.1616p PS=117.72u PD=117.72u
M$53 \$89698 \$90054 \$89698 VSS|anode|cathode|vss sg13_lv_nmos L=0.13u
+ W=51.84u AS=22.1616p AD=22.1616p PS=117.72u PD=117.72u
M$89 \$89699 \$90055 \$89699 VSS|anode|cathode|vss sg13_lv_nmos L=0.13u
+ W=51.84u AS=22.1616p AD=22.1616p PS=117.72u PD=117.72u
M$125 \$89700 \$90056 \$89700 VSS|anode|cathode|vss sg13_lv_nmos L=0.13u
+ W=51.84u AS=22.1616p AD=22.1616p PS=117.72u PD=117.72u
M$161 \$89701 \$90057 \$89701 VSS|anode|cathode|vss sg13_lv_nmos L=0.13u
+ W=51.84u AS=22.1616p AD=22.1616p PS=117.72u PD=117.72u
M$197 \$89702 \$90058 \$89702 VSS|anode|cathode|vss sg13_lv_nmos L=0.13u
+ W=51.84u AS=22.1616p AD=22.1616p PS=117.72u PD=117.72u
M$233 \$89703 \$90059 \$89703 VSS|anode|cathode|vss sg13_lv_nmos L=0.13u
+ W=51.84u AS=22.1616p AD=22.1616p PS=117.72u PD=117.72u
M$269 \$89704 \$90060 \$89704 VSS|anode|cathode|vss sg13_lv_nmos L=0.13u
+ W=51.84u AS=22.1616p AD=22.1616p PS=117.72u PD=117.72u
M$305 \$89705 \$90061 \$89705 VSS|anode|cathode|vss sg13_lv_nmos L=0.13u
+ W=51.84u AS=22.1616p AD=22.1616p PS=117.72u PD=117.72u
M$341 \$89706 \$90062 \$89706 VSS|anode|cathode|vss sg13_lv_nmos L=0.13u
+ W=51.84u AS=22.1616p AD=22.1616p PS=117.72u PD=117.72u
M$737 VSS|anode|cathode|vss a2|zn \$92361 VSS|anode|cathode|vss sg13_lv_nmos
+ L=0.13u W=0.72u AS=0.4068p AD=0.2988p PS=2.57u PD=1.55u
M$738 \$92361 a1|z d|zn VSS|anode|cathode|vss sg13_lv_nmos L=0.13u W=0.72u
+ AS=0.2988p AD=0.2988p PS=1.55u PD=1.55u
M$739 d|zn b|zn VSS|anode|cathode|vss VSS|anode|cathode|vss sg13_lv_nmos
+ L=0.13u W=0.72u AS=0.2988p AD=0.4068p PS=1.55u PD=2.57u
M$740 GO|a2|core|p2c \$90574 VSS|anode|cathode|vss VSS|anode|cathode|vss
+ sg13_lv_nmos L=0.13u W=2.75u AS=0.935p AD=0.935p PS=6.18u PD=6.18u
M$741 \$94944 \$95043 \$94944 VSS|anode|cathode|vss sg13_lv_nmos L=0.13u
+ W=51.84u AS=22.1616p AD=22.1616p PS=117.72u PD=117.72u
M$753 \$93030 z$6 \$93030 VSS|anode|cathode|vss sg13_lv_nmos L=0.13u W=0.36u
+ AS=0.2034p AD=0.2034p PS=1.85u PD=1.85u
M$754 \$90053 zn$1 \$93030 VSS|anode|cathode|vss sg13_lv_nmos L=0.13u W=0.72u
+ AS=0.4068p AD=0.4068p PS=3.7u PD=3.7u
M$755 \$90053 z$6 \$90053 VSS|anode|cathode|vss sg13_lv_nmos L=0.13u W=1.08u
+ AS=0.6102p AD=0.6102p PS=5.55u PD=5.55u
M$770 \$93031 zn$1 \$90053 VSS|anode|cathode|vss sg13_lv_nmos L=0.13u W=0.72u
+ AS=0.4068p AD=0.4068p PS=3.7u PD=3.7u
M$771 \$93031 z$6 \$93031 VSS|anode|cathode|vss sg13_lv_nmos L=0.13u W=0.36u
+ AS=0.2034p AD=0.2034p PS=1.85u PD=1.85u
M$786 \$93032 zn$1 \$90053 VSS|anode|cathode|vss sg13_lv_nmos L=0.13u W=0.72u
+ AS=0.4068p AD=0.4068p PS=3.7u PD=3.7u
M$787 \$93032 z$6 \$93032 VSS|anode|cathode|vss sg13_lv_nmos L=0.13u W=0.36u
+ AS=0.2034p AD=0.2034p PS=1.85u PD=1.85u
M$789 \$94945 \$95044 \$94945 VSS|anode|cathode|vss sg13_lv_nmos L=0.13u
+ W=829.44u AS=354.5856p AD=354.5856p PS=1883.52u PD=1883.52u
M$801 \$93033 z$6 \$93033 VSS|anode|cathode|vss sg13_lv_nmos L=0.13u W=0.36u
+ AS=0.2034p AD=0.2034p PS=1.85u PD=1.85u
M$802 \$90054 zn$1 \$93033 VSS|anode|cathode|vss sg13_lv_nmos L=0.13u W=0.72u
+ AS=0.4068p AD=0.4068p PS=3.7u PD=3.7u
M$803 \$90054 z$6 \$90054 VSS|anode|cathode|vss sg13_lv_nmos L=0.13u W=1.08u
+ AS=0.6102p AD=0.6102p PS=5.55u PD=5.55u
M$818 \$93034 zn$1 \$90054 VSS|anode|cathode|vss sg13_lv_nmos L=0.13u W=0.72u
+ AS=0.4068p AD=0.4068p PS=3.7u PD=3.7u
M$819 \$93034 z$6 \$93034 VSS|anode|cathode|vss sg13_lv_nmos L=0.13u W=0.36u
+ AS=0.2034p AD=0.2034p PS=1.85u PD=1.85u
M$834 \$93035 zn$1 \$90054 VSS|anode|cathode|vss sg13_lv_nmos L=0.13u W=0.72u
+ AS=0.4068p AD=0.4068p PS=3.7u PD=3.7u
M$835 \$93035 z$6 \$93035 VSS|anode|cathode|vss sg13_lv_nmos L=0.13u W=0.36u
+ AS=0.2034p AD=0.2034p PS=1.85u PD=1.85u
M$849 \$93036 z$6 \$93036 VSS|anode|cathode|vss sg13_lv_nmos L=0.13u W=0.36u
+ AS=0.2034p AD=0.2034p PS=1.85u PD=1.85u
M$850 \$90055 zn$1 \$93036 VSS|anode|cathode|vss sg13_lv_nmos L=0.13u W=0.72u
+ AS=0.4068p AD=0.4068p PS=3.7u PD=3.7u
M$851 \$90055 z$6 \$90055 VSS|anode|cathode|vss sg13_lv_nmos L=0.13u W=1.08u
+ AS=0.6102p AD=0.6102p PS=5.55u PD=5.55u
M$866 \$93037 zn$1 \$90055 VSS|anode|cathode|vss sg13_lv_nmos L=0.13u W=0.72u
+ AS=0.4068p AD=0.4068p PS=3.7u PD=3.7u
M$867 \$93037 z$6 \$93037 VSS|anode|cathode|vss sg13_lv_nmos L=0.13u W=0.36u
+ AS=0.2034p AD=0.2034p PS=1.85u PD=1.85u
M$882 \$93038 zn$1 \$90055 VSS|anode|cathode|vss sg13_lv_nmos L=0.13u W=0.72u
+ AS=0.4068p AD=0.4068p PS=3.7u PD=3.7u
M$883 \$93038 z$6 \$93038 VSS|anode|cathode|vss sg13_lv_nmos L=0.13u W=0.36u
+ AS=0.2034p AD=0.2034p PS=1.85u PD=1.85u
M$897 \$93039 z$6 \$93039 VSS|anode|cathode|vss sg13_lv_nmos L=0.13u W=0.36u
+ AS=0.2034p AD=0.2034p PS=1.85u PD=1.85u
M$898 \$90056 zn$1 \$93039 VSS|anode|cathode|vss sg13_lv_nmos L=0.13u W=0.72u
+ AS=0.4068p AD=0.4068p PS=3.7u PD=3.7u
M$899 \$90056 z$6 \$90056 VSS|anode|cathode|vss sg13_lv_nmos L=0.13u W=1.08u
+ AS=0.6102p AD=0.6102p PS=5.55u PD=5.55u
M$914 \$93040 zn$1 \$90056 VSS|anode|cathode|vss sg13_lv_nmos L=0.13u W=0.72u
+ AS=0.4068p AD=0.4068p PS=3.7u PD=3.7u
M$915 \$93040 z$6 \$93040 VSS|anode|cathode|vss sg13_lv_nmos L=0.13u W=0.36u
+ AS=0.2034p AD=0.2034p PS=1.85u PD=1.85u
M$930 \$93041 zn$1 \$90056 VSS|anode|cathode|vss sg13_lv_nmos L=0.13u W=0.72u
+ AS=0.4068p AD=0.4068p PS=3.7u PD=3.7u
M$931 \$93041 z$6 \$93041 VSS|anode|cathode|vss sg13_lv_nmos L=0.13u W=0.36u
+ AS=0.2034p AD=0.2034p PS=1.85u PD=1.85u
M$945 \$93042 z$6 \$93042 VSS|anode|cathode|vss sg13_lv_nmos L=0.13u W=0.36u
+ AS=0.2034p AD=0.2034p PS=1.85u PD=1.85u
M$946 \$90057 zn$1 \$93042 VSS|anode|cathode|vss sg13_lv_nmos L=0.13u W=0.72u
+ AS=0.4068p AD=0.4068p PS=3.7u PD=3.7u
M$947 \$90057 z$6 \$90057 VSS|anode|cathode|vss sg13_lv_nmos L=0.13u W=1.08u
+ AS=0.6102p AD=0.6102p PS=5.55u PD=5.55u
M$962 \$93043 zn$1 \$90057 VSS|anode|cathode|vss sg13_lv_nmos L=0.13u W=0.72u
+ AS=0.4068p AD=0.4068p PS=3.7u PD=3.7u
M$963 \$93043 z$6 \$93043 VSS|anode|cathode|vss sg13_lv_nmos L=0.13u W=0.36u
+ AS=0.2034p AD=0.2034p PS=1.85u PD=1.85u
M$978 \$93044 zn$1 \$90057 VSS|anode|cathode|vss sg13_lv_nmos L=0.13u W=0.72u
+ AS=0.4068p AD=0.4068p PS=3.7u PD=3.7u
M$979 \$93044 z$6 \$93044 VSS|anode|cathode|vss sg13_lv_nmos L=0.13u W=0.36u
+ AS=0.2034p AD=0.2034p PS=1.85u PD=1.85u
M$993 \$93045 z$6 \$93045 VSS|anode|cathode|vss sg13_lv_nmos L=0.13u W=0.36u
+ AS=0.2034p AD=0.2034p PS=1.85u PD=1.85u
M$994 \$90058 zn$1 \$93045 VSS|anode|cathode|vss sg13_lv_nmos L=0.13u W=0.72u
+ AS=0.4068p AD=0.4068p PS=3.7u PD=3.7u
M$995 \$90058 z$6 \$90058 VSS|anode|cathode|vss sg13_lv_nmos L=0.13u W=1.08u
+ AS=0.6102p AD=0.6102p PS=5.55u PD=5.55u
M$1010 \$93046 zn$1 \$90058 VSS|anode|cathode|vss sg13_lv_nmos L=0.13u W=0.72u
+ AS=0.4068p AD=0.4068p PS=3.7u PD=3.7u
M$1011 \$93046 z$6 \$93046 VSS|anode|cathode|vss sg13_lv_nmos L=0.13u W=0.36u
+ AS=0.2034p AD=0.2034p PS=1.85u PD=1.85u
M$1026 \$93047 zn$1 \$90058 VSS|anode|cathode|vss sg13_lv_nmos L=0.13u W=0.72u
+ AS=0.4068p AD=0.4068p PS=3.7u PD=3.7u
M$1027 \$93047 z$6 \$93047 VSS|anode|cathode|vss sg13_lv_nmos L=0.13u W=0.36u
+ AS=0.2034p AD=0.2034p PS=1.85u PD=1.85u
M$1041 \$93048 z$6 \$93048 VSS|anode|cathode|vss sg13_lv_nmos L=0.13u W=0.36u
+ AS=0.2034p AD=0.2034p PS=1.85u PD=1.85u
M$1042 \$90059 zn$1 \$93048 VSS|anode|cathode|vss sg13_lv_nmos L=0.13u W=0.72u
+ AS=0.4068p AD=0.4068p PS=3.7u PD=3.7u
M$1043 \$90059 z$6 \$90059 VSS|anode|cathode|vss sg13_lv_nmos L=0.13u W=1.08u
+ AS=0.6102p AD=0.6102p PS=5.55u PD=5.55u
M$1058 \$93049 zn$1 \$90059 VSS|anode|cathode|vss sg13_lv_nmos L=0.13u W=0.72u
+ AS=0.4068p AD=0.4068p PS=3.7u PD=3.7u
M$1059 \$93049 z$6 \$93049 VSS|anode|cathode|vss sg13_lv_nmos L=0.13u W=0.36u
+ AS=0.2034p AD=0.2034p PS=1.85u PD=1.85u
M$1074 \$93050 zn$1 \$90059 VSS|anode|cathode|vss sg13_lv_nmos L=0.13u W=0.72u
+ AS=0.4068p AD=0.4068p PS=3.7u PD=3.7u
M$1075 \$93050 z$6 \$93050 VSS|anode|cathode|vss sg13_lv_nmos L=0.13u W=0.36u
+ AS=0.2034p AD=0.2034p PS=1.85u PD=1.85u
M$1089 \$93051 z$6 \$93051 VSS|anode|cathode|vss sg13_lv_nmos L=0.13u W=0.36u
+ AS=0.2034p AD=0.2034p PS=1.85u PD=1.85u
M$1090 \$90060 zn$1 \$93051 VSS|anode|cathode|vss sg13_lv_nmos L=0.13u W=0.72u
+ AS=0.4068p AD=0.4068p PS=3.7u PD=3.7u
M$1091 \$90060 z$6 \$90060 VSS|anode|cathode|vss sg13_lv_nmos L=0.13u W=1.08u
+ AS=0.6102p AD=0.6102p PS=5.55u PD=5.55u
M$1106 \$93052 zn$1 \$90060 VSS|anode|cathode|vss sg13_lv_nmos L=0.13u W=0.72u
+ AS=0.4068p AD=0.4068p PS=3.7u PD=3.7u
M$1107 \$93052 z$6 \$93052 VSS|anode|cathode|vss sg13_lv_nmos L=0.13u W=0.36u
+ AS=0.2034p AD=0.2034p PS=1.85u PD=1.85u
M$1122 \$93053 zn$1 \$90060 VSS|anode|cathode|vss sg13_lv_nmos L=0.13u W=0.72u
+ AS=0.4068p AD=0.4068p PS=3.7u PD=3.7u
M$1123 \$93053 z$6 \$93053 VSS|anode|cathode|vss sg13_lv_nmos L=0.13u W=0.36u
+ AS=0.2034p AD=0.2034p PS=1.85u PD=1.85u
M$1137 \$93054 z$6 \$93054 VSS|anode|cathode|vss sg13_lv_nmos L=0.13u W=0.36u
+ AS=0.2034p AD=0.2034p PS=1.85u PD=1.85u
M$1138 \$90061 zn$1 \$93054 VSS|anode|cathode|vss sg13_lv_nmos L=0.13u W=0.72u
+ AS=0.4068p AD=0.4068p PS=3.7u PD=3.7u
M$1139 \$90061 z$6 \$90061 VSS|anode|cathode|vss sg13_lv_nmos L=0.13u W=1.08u
+ AS=0.6102p AD=0.6102p PS=5.55u PD=5.55u
M$1154 \$93055 zn$1 \$90061 VSS|anode|cathode|vss sg13_lv_nmos L=0.13u W=0.72u
+ AS=0.4068p AD=0.4068p PS=3.7u PD=3.7u
M$1155 \$93055 z$6 \$93055 VSS|anode|cathode|vss sg13_lv_nmos L=0.13u W=0.36u
+ AS=0.2034p AD=0.2034p PS=1.85u PD=1.85u
M$1170 \$93056 zn$1 \$90061 VSS|anode|cathode|vss sg13_lv_nmos L=0.13u W=0.72u
+ AS=0.4068p AD=0.4068p PS=3.7u PD=3.7u
M$1171 \$93056 z$6 \$93056 VSS|anode|cathode|vss sg13_lv_nmos L=0.13u W=0.36u
+ AS=0.2034p AD=0.2034p PS=1.85u PD=1.85u
M$1173 \$94946 \$95045 \$94946 VSS|anode|cathode|vss sg13_lv_nmos L=0.13u
+ W=51.84u AS=22.1616p AD=22.1616p PS=117.72u PD=117.72u
M$1185 \$93057 z$6 \$93057 VSS|anode|cathode|vss sg13_lv_nmos L=0.13u W=0.36u
+ AS=0.2034p AD=0.2034p PS=1.85u PD=1.85u
M$1186 \$90062 zn$1 \$93057 VSS|anode|cathode|vss sg13_lv_nmos L=0.13u W=0.72u
+ AS=0.4068p AD=0.4068p PS=3.7u PD=3.7u
M$1187 \$90062 z$6 \$90062 VSS|anode|cathode|vss sg13_lv_nmos L=0.13u W=1.08u
+ AS=0.6102p AD=0.6102p PS=5.55u PD=5.55u
M$1202 \$93058 zn$1 \$90062 VSS|anode|cathode|vss sg13_lv_nmos L=0.13u W=0.72u
+ AS=0.4068p AD=0.4068p PS=3.7u PD=3.7u
M$1203 \$93058 z$6 \$93058 VSS|anode|cathode|vss sg13_lv_nmos L=0.13u W=0.36u
+ AS=0.2034p AD=0.2034p PS=1.85u PD=1.85u
M$1218 \$93059 zn$1 \$90062 VSS|anode|cathode|vss sg13_lv_nmos L=0.13u W=0.72u
+ AS=0.4068p AD=0.4068p PS=3.7u PD=3.7u
M$1219 \$93059 z$6 \$93059 VSS|anode|cathode|vss sg13_lv_nmos L=0.13u W=0.36u
+ AS=0.2034p AD=0.2034p PS=1.85u PD=1.85u
M$1581 \$94578 a1|z$3 \$95725 VSS|anode|cathode|vss sg13_lv_nmos L=0.13u
+ W=0.655u AS=0.370075p AD=0.271825p PS=2.44u PD=1.485u
M$1582 VSS|anode|cathode|vss a2|z \$95725 VSS|anode|cathode|vss sg13_lv_nmos
+ L=0.13u W=0.655u AS=0.2901875p AD=0.271825p PS=1.55u PD=1.485u
M$1583 VSS|anode|cathode|vss \$94578 d|z VSS|anode|cathode|vss sg13_lv_nmos
+ L=0.13u W=0.72u AS=0.2901875p AD=0.4068p PS=1.55u PD=2.57u
M$1584 VSS|anode|cathode|vss a2|zn$1 \$96154 VSS|anode|cathode|vss sg13_lv_nmos
+ L=0.13u W=0.72u AS=0.4068p AD=0.2988p PS=2.57u PD=1.55u
M$1585 \$96154 a1|z$4 d|zn$1 VSS|anode|cathode|vss sg13_lv_nmos L=0.13u W=0.72u
+ AS=0.2988p AD=0.2988p PS=1.55u PD=1.55u
M$1586 d|zn$1 b|zn VSS|anode|cathode|vss VSS|anode|cathode|vss sg13_lv_nmos
+ L=0.13u W=0.72u AS=0.2988p AD=0.4068p PS=1.55u PD=2.57u
M$1587 b|zn$1 a1|a2|a3|z \$95723 VSS|anode|cathode|vss sg13_lv_nmos L=0.13u
+ W=0.72u AS=0.4068p AD=0.2988p PS=2.57u PD=1.55u
M$1588 \$95723 GO|a2|core|p2c \$95736 VSS|anode|cathode|vss sg13_lv_nmos
+ L=0.13u W=0.72u AS=0.2988p AD=0.2988p PS=1.55u PD=1.55u
M$1589 \$95736 a2|a3|zn VSS|anode|cathode|vss VSS|anode|cathode|vss
+ sg13_lv_nmos L=0.13u W=0.72u AS=0.2988p AD=0.4068p PS=1.55u PD=2.57u
M$1590 a1|z$1 a1|b|i|q$1 VSS|anode|cathode|vss VSS|anode|cathode|vss
+ sg13_lv_nmos L=0.13u W=0.72u AS=0.4068p AD=0.4068p PS=2.57u PD=2.57u
M$1591 a1|z$2 a1|b|i|q VSS|anode|cathode|vss VSS|anode|cathode|vss sg13_lv_nmos
+ L=0.13u W=0.72u AS=0.4068p AD=0.4068p PS=2.57u PD=2.57u
M$1592 \$100313 \$100687 \$100313 VSS|anode|cathode|vss sg13_lv_nmos L=0.13u
+ W=51.84u AS=22.1616p AD=22.1616p PS=117.72u PD=117.72u
M$1604 \$98295 z$6 \$98295 VSS|anode|cathode|vss sg13_lv_nmos L=0.13u W=0.36u
+ AS=0.2034p AD=0.2034p PS=1.85u PD=1.85u
M$1605 \$95043 zn$1 \$98295 VSS|anode|cathode|vss sg13_lv_nmos L=0.13u W=0.72u
+ AS=0.4068p AD=0.4068p PS=3.7u PD=3.7u
M$1606 \$95043 z$6 \$95043 VSS|anode|cathode|vss sg13_lv_nmos L=0.13u W=1.08u
+ AS=0.6102p AD=0.6102p PS=5.55u PD=5.55u
M$1621 \$98296 zn$1 \$95043 VSS|anode|cathode|vss sg13_lv_nmos L=0.13u W=0.72u
+ AS=0.4068p AD=0.4068p PS=3.7u PD=3.7u
M$1622 \$98296 z$6 \$98296 VSS|anode|cathode|vss sg13_lv_nmos L=0.13u W=0.36u
+ AS=0.2034p AD=0.2034p PS=1.85u PD=1.85u
M$1637 \$98297 zn$1 \$95043 VSS|anode|cathode|vss sg13_lv_nmos L=0.13u W=0.72u
+ AS=0.4068p AD=0.4068p PS=3.7u PD=3.7u
M$1638 \$98297 z$6 \$98297 VSS|anode|cathode|vss sg13_lv_nmos L=0.13u W=0.36u
+ AS=0.2034p AD=0.2034p PS=1.85u PD=1.85u
M$1652 a2 z$4 a2 VSS|anode|cathode|vss sg13_lv_nmos L=0.13u W=5.76u AS=3.2544p
+ AD=3.2544p PS=29.6u PD=29.6u
M$1653 \$95044 z$1 a2 VSS|anode|cathode|vss sg13_lv_nmos L=0.13u W=11.52u
+ AS=6.5088p AD=6.5088p PS=59.2u PD=59.2u
M$1654 \$95044 z$4 \$95044 VSS|anode|cathode|vss sg13_lv_nmos L=0.13u W=5.76u
+ AS=3.2544p AD=3.2544p PS=29.6u PD=29.6u
M$1668 \$95044 z$7 \$95044 VSS|anode|cathode|vss sg13_lv_nmos L=0.13u W=5.76u
+ AS=3.2544p AD=3.2544p PS=29.6u PD=29.6u
M$1669 VIP|core|padres z$3 \$95044 VSS|anode|cathode|vss sg13_lv_nmos L=0.13u
+ W=11.52u AS=6.5088p AD=6.5088p PS=59.2u PD=59.2u
M$1670 VIP|core|padres z$7 VIP|core|padres VSS|anode|cathode|vss sg13_lv_nmos
+ L=0.13u W=5.76u AS=3.2544p AD=3.2544p PS=29.6u PD=29.6u
M$1684 \$95044 z$2 \$95044 VSS|anode|cathode|vss sg13_lv_nmos L=0.13u W=5.76u
+ AS=3.2544p AD=3.2544p PS=29.6u PD=29.6u
M$1685 VIN|core|padres zn \$95044 VSS|anode|cathode|vss sg13_lv_nmos L=0.13u
+ W=11.52u AS=6.5088p AD=6.5088p PS=59.2u PD=59.2u
M$1686 VIN|core|padres z$2 VIN|core|padres VSS|anode|cathode|vss sg13_lv_nmos
+ L=0.13u W=5.76u AS=3.2544p AD=3.2544p PS=29.6u PD=29.6u
M$1736 \$100314 \$100688 \$100314 VSS|anode|cathode|vss sg13_lv_nmos L=0.13u
+ W=414.72u AS=177.2928p AD=177.2928p PS=941.76u PD=941.76u
M$2024 \$100315 \$100689 \$100315 VSS|anode|cathode|vss sg13_lv_nmos L=0.13u
+ W=51.84u AS=22.1616p AD=22.1616p PS=117.72u PD=117.72u
M$2036 \$98300 z$6 \$98300 VSS|anode|cathode|vss sg13_lv_nmos L=0.13u W=0.36u
+ AS=0.2034p AD=0.2034p PS=1.85u PD=1.85u
M$2037 \$95045 zn$1 \$98300 VSS|anode|cathode|vss sg13_lv_nmos L=0.13u W=0.72u
+ AS=0.4068p AD=0.4068p PS=3.7u PD=3.7u
M$2038 \$95045 z$6 \$95045 VSS|anode|cathode|vss sg13_lv_nmos L=0.13u W=1.08u
+ AS=0.6102p AD=0.6102p PS=5.55u PD=5.55u
M$2053 \$98301 zn$1 \$95045 VSS|anode|cathode|vss sg13_lv_nmos L=0.13u W=0.72u
+ AS=0.4068p AD=0.4068p PS=3.7u PD=3.7u
M$2054 \$98301 z$6 \$98301 VSS|anode|cathode|vss sg13_lv_nmos L=0.13u W=0.36u
+ AS=0.2034p AD=0.2034p PS=1.85u PD=1.85u
M$2069 \$98302 zn$1 \$95045 VSS|anode|cathode|vss sg13_lv_nmos L=0.13u W=0.72u
+ AS=0.4068p AD=0.4068p PS=3.7u PD=3.7u
M$2070 \$98302 z$6 \$98302 VSS|anode|cathode|vss sg13_lv_nmos L=0.13u W=0.36u
+ AS=0.2034p AD=0.2034p PS=1.85u PD=1.85u
M$2072 \$97578 \$97512 VSS|anode|cathode|vss VSS|anode|cathode|vss sg13_lv_nmos
+ L=0.13u W=0.72u AS=0.4068p AD=0.2988p PS=2.57u PD=1.55u
M$2073 VSS|anode|cathode|vss cp|z \$97512 VSS|anode|cathode|vss sg13_lv_nmos
+ L=0.13u W=0.72u AS=0.2988p AD=0.4068p PS=1.55u PD=2.57u
M$2074 \$99205 \$99051 VSS|anode|cathode|vss VSS|anode|cathode|vss sg13_lv_nmos
+ L=0.13u W=0.72u AS=0.4068p AD=0.2988p PS=2.57u PD=1.55u
M$2075 VSS|anode|cathode|vss cp|z$1 \$99051 VSS|anode|cathode|vss sg13_lv_nmos
+ L=0.13u W=0.72u AS=0.2988p AD=0.4068p PS=1.55u PD=2.57u
M$2076 VSS|anode|cathode|vss \$97512 \$98777 VSS|anode|cathode|vss sg13_lv_nmos
+ L=0.13u W=0.42u AS=0.2373p AD=0.1743p PS=1.97u PD=1.25u
M$2077 \$98777 d|z$1 \$97513 VSS|anode|cathode|vss sg13_lv_nmos L=0.13u W=0.42u
+ AS=0.1743p AD=0.151775p PS=1.25u PD=1.25u
M$2078 \$97513 \$97578 \$98778 VSS|anode|cathode|vss sg13_lv_nmos L=0.13u
+ W=0.25u AS=0.151775p AD=0.10375p PS=1.25u PD=1.08u
M$2079 VSS|anode|cathode|vss \$97579 \$98778 VSS|anode|cathode|vss sg13_lv_nmos
+ L=0.13u W=0.25u AS=0.1659p AD=0.10375p PS=1.3u PD=1.08u
M$2080 VSS|anode|cathode|vss \$97513 \$97579 VSS|anode|cathode|vss sg13_lv_nmos
+ L=0.13u W=0.47u AS=0.1659p AD=0.1837875p PS=1.3u PD=1.3u
M$2081 \$97579 \$97578 \$98709 VSS|anode|cathode|vss sg13_lv_nmos L=0.13u
+ W=0.385u AS=0.1837875p AD=0.1418875p PS=1.3u PD=1.215u
M$2082 \$98709 \$97512 \$98776 VSS|anode|cathode|vss sg13_lv_nmos L=0.13u
+ W=0.25u AS=0.1418875p AD=0.10375p PS=1.215u PD=1.08u
M$2083 VSS|anode|cathode|vss \$97580 \$98776 VSS|anode|cathode|vss sg13_lv_nmos
+ L=0.13u W=0.25u AS=0.236525p AD=0.10375p PS=1.55u PD=1.08u
M$2084 VSS|anode|cathode|vss \$98709 \$97580 VSS|anode|cathode|vss sg13_lv_nmos
+ L=0.13u W=0.72u AS=0.236525p AD=0.4068p PS=1.55u PD=2.57u
M$2085 \$99052 \$99205 \$99393 VSS|anode|cathode|vss sg13_lv_nmos L=0.13u
+ W=0.25u AS=0.151775p AD=0.10375p PS=1.25u PD=1.08u
M$2086 \$99393 \$99054 VSS|anode|cathode|vss VSS|anode|cathode|vss sg13_lv_nmos
+ L=0.13u W=0.25u AS=0.10375p AD=0.1659p PS=1.08u PD=1.3u
M$2087 \$99053 \$99051 \$99382 VSS|anode|cathode|vss sg13_lv_nmos L=0.13u
+ W=0.25u AS=0.1418875p AD=0.10375p PS=1.215u PD=1.08u
M$2088 \$99382 \$99206 VSS|anode|cathode|vss VSS|anode|cathode|vss sg13_lv_nmos
+ L=0.13u W=0.25u AS=0.10375p AD=0.236525p PS=1.08u PD=1.55u
M$2089 \$99054 \$99205 \$99053 VSS|anode|cathode|vss sg13_lv_nmos L=0.13u
+ W=0.385u AS=0.1837875p AD=0.1418875p PS=1.3u PD=1.215u
M$2090 VSS|anode|cathode|vss \$99051 \$99390 VSS|anode|cathode|vss sg13_lv_nmos
+ L=0.13u W=0.42u AS=0.2373p AD=0.1743p PS=1.97u PD=1.25u
M$2091 \$99390 d|zn$1 \$99052 VSS|anode|cathode|vss sg13_lv_nmos L=0.13u
+ W=0.42u AS=0.1743p AD=0.151775p PS=1.25u PD=1.25u
M$2092 VSS|anode|cathode|vss \$99052 \$99054 VSS|anode|cathode|vss sg13_lv_nmos
+ L=0.13u W=0.47u AS=0.1659p AD=0.1837875p PS=1.3u PD=1.3u
M$2093 VSS|anode|cathode|vss \$99053 \$99206 VSS|anode|cathode|vss sg13_lv_nmos
+ L=0.13u W=0.72u AS=0.236525p AD=0.4068p PS=1.55u PD=2.57u
M$2094 b|i|q$1 \$97580 VSS|anode|cathode|vss VSS|anode|cathode|vss sg13_lv_nmos
+ L=0.13u W=0.72u AS=0.4068p AD=0.4068p PS=2.57u PD=2.57u
M$2095 RESULT[3]|c2p|core|i|q \$99206 VSS|anode|cathode|vss
+ VSS|anode|cathode|vss sg13_lv_nmos L=0.13u W=0.72u AS=0.4068p AD=0.4068p
+ PS=2.57u PD=2.57u
M$2456 \$102486 \$102482 VSS|anode|cathode|vss VSS|anode|cathode|vss
+ sg13_lv_nmos L=0.13u W=0.72u AS=0.4068p AD=0.2988p PS=2.57u PD=1.55u
M$2457 VSS|anode|cathode|vss cp|z$1 \$102482 VSS|anode|cathode|vss sg13_lv_nmos
+ L=0.13u W=0.72u AS=0.2988p AD=0.4068p PS=1.55u PD=2.57u
M$2458 \$102483 \$102486 \$102749 VSS|anode|cathode|vss sg13_lv_nmos L=0.13u
+ W=0.25u AS=0.151775p AD=0.10375p PS=1.25u PD=1.08u
M$2459 \$102749 \$102487 VSS|anode|cathode|vss VSS|anode|cathode|vss
+ sg13_lv_nmos L=0.13u W=0.25u AS=0.10375p AD=0.1659p PS=1.08u PD=1.3u
M$2460 \$102484 \$102482 \$102747 VSS|anode|cathode|vss sg13_lv_nmos L=0.13u
+ W=0.25u AS=0.1418875p AD=0.10375p PS=1.215u PD=1.08u
M$2461 \$102747 \$102761 VSS|anode|cathode|vss VSS|anode|cathode|vss
+ sg13_lv_nmos L=0.13u W=0.25u AS=0.10375p AD=0.236525p PS=1.08u PD=1.55u
M$2462 \$102487 \$102486 \$102484 VSS|anode|cathode|vss sg13_lv_nmos L=0.13u
+ W=0.385u AS=0.1837875p AD=0.1418875p PS=1.3u PD=1.215u
M$2463 VSS|anode|cathode|vss \$102482 \$102748 VSS|anode|cathode|vss
+ sg13_lv_nmos L=0.13u W=0.42u AS=0.2373p AD=0.1743p PS=1.97u PD=1.25u
M$2464 \$102748 d|zn$2 \$102483 VSS|anode|cathode|vss sg13_lv_nmos L=0.13u
+ W=0.42u AS=0.1743p AD=0.151775p PS=1.25u PD=1.25u
M$2465 VSS|anode|cathode|vss \$102483 \$102487 VSS|anode|cathode|vss
+ sg13_lv_nmos L=0.13u W=0.47u AS=0.1659p AD=0.1837875p PS=1.3u PD=1.3u
M$2466 VSS|anode|cathode|vss \$102484 \$102761 VSS|anode|cathode|vss
+ sg13_lv_nmos L=0.13u W=0.72u AS=0.236525p AD=0.4068p PS=1.55u PD=2.57u
M$2467 RESULT[0]|c2p|core|i|q \$102761 VSS|anode|cathode|vss
+ VSS|anode|cathode|vss sg13_lv_nmos L=0.13u W=0.72u AS=0.4068p AD=0.4068p